<?xml version="1.0" encoding="UTF-8"?>

<!-- generated on 2024-05-28 12:53:08 by Eclipse SUMO netconvert Version 1.18.0
<configuration xmlns:xsi="http://www.w3.org/2001/XMLSchema-instance" xsi:noNamespaceSchemaLocation="http://sumo.dlr.de/xsd/netconvertConfiguration.xsd">

    <input>
        <osm-files value="okayamastation.osm"/>
    </input>

    <output>
        <output-file value="okayamastation.net.xml"/>
    </output>

    <projection>
        <proj.utm value="true"/>
    </projection>

    <processing>
        <geometry.remove value="true"/>
        <roundabouts.guess value="true"/>
    </processing>

    <tls_building>
        <tls.discard-simple value="true"/>
        <tls.join value="true"/>
        <tls.guess-signals value="true"/>
    </tls_building>

    <junctions>
        <no-internal-links value="true"/>
        <no-turnarounds value="true"/>
        <junctions.join value="true"/>
    </junctions>

    <report>
        <ignore-errors value="true"/>
    </report>

</configuration>
-->

<net version="1.16" junctionCornerDetail="5" limitTurnSpeed="5.50" xmlns:xsi="http://www.w3.org/2001/XMLSchema-instance" xsi:noNamespaceSchemaLocation="http://sumo.dlr.de/xsd/net_file.xsd">

    <location netOffset="-400259.15,-3836674.62" convBoundary="0.00,0.00,649.19,396.01" origBoundary="133.911351,34.667237,133.918443,34.670759" projParameter="+proj=utm +zone=53 +ellps=WGS84 +datum=WGS84 +units=m +no_defs"/>

    <type id="highway.cycleway" priority="1" numLanes="1" speed="5.56" allow="bicycle" oneway="0" width="2.00"/>
    <type id="highway.footway" priority="1" numLanes="1" speed="2.78" allow="pedestrian" oneway="1" width="2.00"/>
    <type id="highway.path" priority="1" numLanes="1" speed="5.56" allow="pedestrian bicycle" oneway="0" width="2.00"/>
    <type id="highway.pedestrian" priority="1" numLanes="1" speed="2.78" allow="pedestrian" oneway="1" width="2.00"/>
    <type id="highway.residential" priority="3" numLanes="1" speed="13.89" disallow="tram rail_urban rail rail_electric rail_fast ship" oneway="0"/>
    <type id="highway.service" priority="1" numLanes="1" speed="5.56" allow="pedestrian delivery bicycle" oneway="0"/>
    <type id="highway.tertiary" priority="10" numLanes="1" speed="22.22" disallow="tram rail_urban rail rail_electric rail_fast ship" oneway="0"/>
    <type id="highway.unclassified" priority="4" numLanes="1" speed="13.89" disallow="tram rail_urban rail rail_electric rail_fast ship" oneway="0"/>

    <edge id="-167273502" from="7013847170" to="1786790588" priority="4" type="highway.unclassified">
        <lane id="-167273502_0" index="0" disallow="tram rail_urban rail rail_electric rail_fast ship" speed="13.89" length="52.12" shape="170.28,35.41 169.50,84.34"/>
    </edge>
    <edge id="-167273509#0" from="6987304742" to="1786790515" priority="4" type="highway.unclassified">
        <lane id="-167273509#0_0" index="0" disallow="tram rail_urban rail rail_electric rail_fast ship" speed="13.89" length="46.26" shape="456.02,163.71 489.43,163.93"/>
    </edge>
    <edge id="-167273509#1" from="1786790580" to="6987304742" priority="4" type="highway.unclassified">
        <lane id="-167273509#1_0" index="0" disallow="tram rail_urban rail rail_electric rail_fast ship" speed="13.89" length="34.91" shape="423.61,163.46 446.62,163.64"/>
    </edge>
    <edge id="-167273512#0" from="cluster_1786790388_6984535429" to="1786790405" priority="3" type="highway.residential" shape="426.04,52.97 473.81,52.16">
        <lane id="-167273512#0_0" index="0" disallow="tram rail_urban rail rail_electric rail_fast ship" speed="13.89" length="52.51" shape="433.27,51.25 467.23,50.67"/>
    </edge>
    <edge id="-167273512#2" from="1924467753" to="cluster_1786790388_6984535429" priority="3" type="highway.residential" shape="370.37,53.17 416.58,53.13">
        <lane id="-167273512#2_0" index="0" disallow="tram rail_urban rail rail_electric rail_fast ship" speed="13.89" length="50.94" shape="377.60,51.56 409.44,51.54"/>
    </edge>
    <edge id="-167273512#3" from="1786790553" to="1924467753" priority="3" type="highway.residential">
        <lane id="-167273512#3_0" index="0" disallow="tram rail_urban rail rail_electric rail_fast ship" speed="13.89" length="104.41" shape="269.06,51.88 363.16,51.59"/>
    </edge>
    <edge id="-167273516#0" from="4349798943" to="1786790474" priority="4" type="highway.unclassified">
        <lane id="-167273516#0_0" index="0" disallow="tram rail_urban rail rail_electric rail_fast ship" speed="13.89" length="31.82" shape="37.54,170.68 37.52,190.62"/>
    </edge>
    <edge id="-167273516#1" from="cluster_4349798944_7015707770_7015747208" to="4349798943" priority="4" type="highway.unclassified" shape="37.34,148.38 35.94,166.03">
        <lane id="-167273516#1_0" index="0" disallow="tram rail_urban rail rail_electric rail_fast ship" speed="13.89" length="25.93" shape="38.39,155.44 37.93,161.15"/>
    </edge>
    <edge id="-167273516#4" from="1266340252" to="cluster_4349798944_7015707770_7015747208" priority="4" type="highway.unclassified" shape="38.46,111.81 37.82,132.59">
        <lane id="-167273516#4_0" index="0" disallow="tram rail_urban rail rail_electric rail_fast ship" speed="13.89" length="28.35" shape="39.89,117.34 39.56,128.06"/>
    </edge>
    <edge id="-167273516#5" from="1786790626" to="1266340252" priority="4" type="highway.unclassified">
        <lane id="-167273516#5_0" index="0" disallow="tram rail_urban rail rail_electric rail_fast ship" speed="13.89" length="25.79" shape="40.06,91.67 40.06,106.33"/>
    </edge>
    <edge id="-167273516#6" from="4349798950" to="1786790626" priority="4" type="highway.unclassified">
        <lane id="-167273516#6_0" index="0" disallow="tram rail_urban rail rail_electric rail_fast ship" speed="13.89" length="52.72" shape="39.65,33.29 40.02,80.31"/>
    </edge>
    <edge id="-167273523#0" from="2494956795" to="1786790330" priority="4" type="highway.unclassified" shape="621.80,132.57 631.02,132.92 648.45,133.57">
        <lane id="-167273523#0_0" index="0" disallow="tram rail_urban rail rail_electric rail_fast ship" speed="13.89" length="26.67" shape="628.97,131.24 631.08,131.32 648.51,131.98"/>
    </edge>
    <edge id="-167273523#1" from="6848974595" to="2494956795" priority="4" type="highway.unclassified" shape="589.90,179.21 592.21,132.27 621.80,132.57">
        <lane id="-167273523#1_0" index="0" disallow="tram rail_urban rail rail_electric rail_fast ship" speed="13.89" length="76.59" shape="588.58,173.44 590.69,130.66 614.62,130.90"/>
    </edge>
    <edge id="-167273538#1" from="4465786381" to="cluster_4465786382_4465786383" priority="4" type="highway.unclassified" shape="603.21,36.63 596.72,41.96">
        <lane id="-167273538#1_0" index="0" disallow="tram rail_urban rail rail_electric rail_fast ship" speed="13.89" length="11.62" shape="600.98,40.53 599.74,41.55"/>
    </edge>
    <edge id="-167273538#2" from="2494956769" to="4465786381" priority="4" type="highway.unclassified">
        <lane id="-167273538#2_0" index="0" disallow="tram rail_urban rail rail_electric rail_fast ship" speed="13.89" length="7.86" shape="606.70,36.53 606.53,36.63"/>
    </edge>
    <edge id="-167273538#3" from="cluster_11311140399_11311140402_1786790514_2494956788" to="2494956769" priority="4" type="highway.unclassified" shape="626.15,88.84 630.44,83.43 631.90,81.52 633.32,76.98 633.52,72.30 633.10,67.87 631.62,63.88 610.10,32.85">
        <lane id="-167273538#3_0" index="0" disallow="tram rail_urban rail rail_electric rail_fast ship" speed="13.89" length="69.76" shape="624.90,87.85 629.18,82.44 630.46,80.77 631.73,76.71 631.91,72.34 631.53,68.23 630.19,64.63 612.48,39.08"/>
    </edge>
    <edge id="-167273547#0" from="6987304720" to="1786790560" priority="4" type="highway.unclassified">
        <lane id="-167273547#0_0" index="0" disallow="tram rail_urban rail rail_electric rail_fast ship" speed="13.89" length="54.37" shape="474.08,242.31 429.95,242.16"/>
    </edge>
    <edge id="-167273547#1" from="1786790455" to="6987304720" priority="4" type="highway.unclassified">
        <lane id="-167273547#1_0" index="0" disallow="tram rail_urban rail rail_electric rail_fast ship" speed="13.89" length="27.16" shape="500.21,242.76 483.40,242.42"/>
    </edge>
    <edge id="-167273547#2" from="7020987208" to="1786790455" priority="4" type="highway.unclassified">
        <lane id="-167273547#2_0" index="0" disallow="tram rail_urban rail rail_electric rail_fast ship" speed="13.89" length="22.13" shape="523.27,243.10 511.48,242.94"/>
    </edge>
    <edge id="-167273547#3" from="7020987210" to="7020987208" priority="4" type="highway.unclassified">
        <lane id="-167273547#3_0" index="0" disallow="tram rail_urban rail rail_electric rail_fast ship" speed="13.89" length="13.77" shape="537.03,243.29 532.67,243.23"/>
    </edge>
    <edge id="-167273547#4" from="cluster_2494956800_2494956801" to="7020987210" priority="4" type="highway.unclassified" shape="560.54,242.00 541.76,241.75">
        <lane id="-167273547#4_0" index="0" disallow="tram rail_urban rail rail_electric rail_fast ship" speed="13.89" length="20.52" shape="557.29,243.56 546.43,243.41"/>
    </edge>
    <edge id="-167273547#6" from="832530389" to="cluster_2494956800_2494956801" priority="4" type="highway.unclassified" shape="573.45,244.16 564.01,242.18">
        <lane id="-167273547#6_0" index="0" disallow="tram rail_urban rail rail_electric rail_fast ship" speed="13.89" length="11.38" shape="564.93,244.00 564.74,243.96"/>
    </edge>
    <edge id="-167273548#0" from="1786790511" to="1786790405" priority="4" type="highway.unclassified">
        <lane id="-167273548#0_0" index="0" disallow="tram rail_urban rail rail_electric rail_fast ship" speed="13.89" length="39.60" shape="479.81,83.09 473.83,58.90"/>
    </edge>
    <edge id="-167273548#1" from="1924467798" to="1786790511" priority="4" type="highway.unclassified">
        <lane id="-167273548#1_0" index="0" disallow="tram rail_urban rail rail_electric rail_fast ship" speed="13.89" length="43.28" shape="487.23,125.94 482.94,98.58"/>
    </edge>
    <edge id="-167273548#2" from="1786790515" to="1924467798" priority="4" type="highway.unclassified">
        <lane id="-167273548#2_0" index="0" disallow="tram rail_urban rail rail_electric rail_fast ship" speed="13.89" length="33.08" shape="494.10,158.10 489.93,140.08"/>
    </edge>
    <edge id="-167273553#0" from="cluster_1924467797_6988424924" to="1786790580" priority="4" type="highway.unclassified" shape="417.52,132.93 416.30,165.01">
        <lane id="-167273553#0_0" index="0" disallow="tram rail_urban rail rail_electric rail_fast ship" speed="13.89" length="37.07" shape="418.85,140.05 418.18,157.77"/>
    </edge>
    <edge id="-167273553#2" from="cluster_1786790501_6987328929" to="cluster_1924467797_6988424924" priority="4" type="highway.unclassified" shape="417.40,102.61 417.48,122.98">
        <lane id="-167273553#2_0" index="0" disallow="tram rail_urban rail rail_electric rail_fast ship" speed="13.89" length="30.53" shape="419.03,109.78 419.06,118.30"/>
    </edge>
    <edge id="-167273553#4" from="cluster_1786790388_6984535429" to="cluster_1786790501_6987328929" priority="4" type="highway.unclassified" shape="416.58,53.13 417.36,92.24">
        <lane id="-167273553#4_0" index="0" disallow="tram rail_urban rail rail_electric rail_fast ship" speed="13.89" length="45.66" shape="418.33,60.51 418.80,84.09"/>
    </edge>
    <edge id="-181954477#1" from="cluster_1922998952_7015843168" to="cluster_1922998872_7010088430_7015974010" priority="4" type="highway.unclassified" shape="96.81,259.77 96.80,208.21">
        <lane id="-181954477#1_0" index="0" disallow="tram rail_urban rail rail_electric rail_fast ship" speed="5.56" length="59.96" shape="95.21,252.51 95.20,215.48"/>
    </edge>
    <edge id="-181954477#2" from="7015973974" to="cluster_1922998952_7015843168" priority="4" type="highway.unclassified" shape="97.46,299.34 96.81,259.77">
        <lane id="-181954477#2_0" index="0" disallow="tram rail_urban rail rail_electric rail_fast ship" speed="5.56" length="41.21" shape="95.79,294.60 95.32,266.54"/>
    </edge>
    <edge id="-181954477#3" from="1922999046" to="7015973974" priority="4" type="highway.unclassified">
        <lane id="-181954477#3_0" index="0" disallow="tram rail_urban rail rail_electric rail_fast ship" speed="5.56" length="14.13" shape="95.98,306.42 95.94,304.00"/>
    </edge>
    <edge id="-181954477#4" from="1922999147" to="1922999046" priority="4" type="highway.unclassified">
        <lane id="-181954477#4_0" index="0" disallow="tram rail_urban rail rail_electric rail_fast ship" speed="5.56" length="41.74" shape="95.50,347.99 95.97,320.66"/>
    </edge>
    <edge id="-181954660#0" from="7020707062" to="1922999209" priority="4" type="highway.unclassified" shape="308.70,367.29 342.58,368.02 345.83,369.61">
        <lane id="-181954660#0_0" index="0" disallow="tram rail_urban rail rail_electric rail_fast ship" speed="13.89" length="37.31" shape="313.34,365.79 337.98,366.32"/>
    </edge>
    <edge id="-181954660#1" from="7020707117" to="7020707062" priority="4" type="highway.unclassified" shape="270.78,366.13 290.99,366.90 308.70,367.29">
        <lane id="-181954660#1_0" index="0" disallow="tram rail_urban rail rail_electric rail_fast ship" speed="13.89" length="37.93" shape="275.81,364.73 291.04,365.30 303.94,365.59"/>
    </edge>
    <edge id="-181954660#2" from="1922999206" to="7020707117" priority="4" type="highway.unclassified">
        <lane id="-181954660#2_0" index="0" disallow="tram rail_urban rail rail_electric rail_fast ship" speed="13.89" length="11.01" shape="263.11,364.24 266.40,364.36"/>
    </edge>
    <edge id="-181955322#0" from="7015974022" to="1922999149" priority="4" type="highway.unclassified">
        <lane id="-181955322#0_0" index="0" disallow="tram rail_urban rail rail_electric rail_fast ship" speed="13.89" length="33.54" shape="159.28,354.82 180.91,355.25"/>
    </edge>
    <edge id="-181955322#1" from="1922999147" to="7015974022" priority="4" type="highway.unclassified">
        <lane id="-181955322#1_0" index="0" disallow="tram rail_urban rail rail_electric rail_fast ship" speed="13.89" length="57.62" shape="104.19,353.74 149.88,354.64"/>
    </edge>
    <edge id="-181955491#0" from="7020705845" to="1922998989" priority="4" type="highway.unclassified">
        <lane id="-181955491#0_0" index="0" disallow="tram rail_urban rail rail_electric rail_fast ship" speed="13.89" length="75.53" shape="297.28,285.10 360.80,284.38"/>
    </edge>
    <edge id="-181955491#1" from="1922998992" to="7020705845" priority="4" type="highway.unclassified">
        <lane id="-181955491#1_0" index="0" disallow="tram rail_urban rail rail_electric rail_fast ship" speed="13.89" length="32.73" shape="262.87,285.48 287.88,285.21"/>
    </edge>
    <edge id="-181955508#0" from="7018298806" to="1922999048" priority="4" type="highway.unclassified">
        <lane id="-181955508#0_0" index="0" disallow="tram rail_urban rail rail_electric rail_fast ship" speed="13.89" length="23.00" shape="186.78,329.56 186.87,322.05"/>
    </edge>
    <edge id="-181955508#1" from="1922999149" to="7018298806" priority="4" type="highway.unclassified">
        <lane id="-181955508#1_0" index="0" disallow="tram rail_urban rail rail_electric rail_fast ship" speed="13.89" length="20.15" shape="186.58,349.74 186.63,343.99"/>
    </edge>
    <edge id="-181955543#0" from="cluster_4349798901_7020707064" to="1922999054" priority="4" type="highway.unclassified" shape="346.45,332.57 346.54,315.61">
        <lane id="-181955543#0_0" index="0" disallow="tram rail_urban rail rail_electric rail_fast ship" speed="13.89" length="19.60" shape="344.88,327.67 344.91,321.30"/>
    </edge>
    <edge id="-181955543#2" from="1922999209" to="cluster_4349798901_7020707064" priority="4" type="highway.unclassified" shape="345.83,369.61 346.42,337.86">
        <lane id="-181955543#2_0" index="0" disallow="tram rail_urban rail rail_electric rail_fast ship" speed="13.89" length="34.40" shape="344.39,360.86 344.68,345.05"/>
    </edge>
    <edge id="-181956624#1" from="7015843162" to="cluster_1922998952_7015843168" priority="4" type="highway.unclassified" shape="67.22,259.20 87.33,259.59">
        <lane id="-181956624#1_0" index="0" disallow="tram rail_urban rail rail_electric rail_fast ship" speed="13.89" length="24.85" shape="72.05,257.69 80.20,257.85"/>
    </edge>
    <edge id="-181956624#2" from="2496061237" to="7015843162" priority="4" type="highway.unclassified">
        <lane id="-181956624#2_0" index="0" disallow="tram rail_urban rail rail_electric rail_fast ship" speed="13.89" length="45.96" shape="23.94,256.75 62.65,257.51"/>
    </edge>
    <edge id="-181956624#3" from="832530198" to="2496061237" priority="4" type="highway.unclassified">
        <lane id="-181956624#3_0" index="0" disallow="tram rail_urban rail rail_electric rail_fast ship" speed="13.89" length="8.77" shape="12.57,256.34 18.64,256.59"/>
    </edge>
    <edge id="-181956886#0" from="7018298750" to="1922999187" priority="4" type="highway.unclassified">
        <lane id="-181956886#0_0" index="0" disallow="tram rail_urban rail rail_electric rail_fast ship" speed="13.89" length="24.01" shape="240.36,356.06 254.10,356.23"/>
    </edge>
    <edge id="-181956886#1" from="1922999149" to="7018298750" priority="4" type="highway.unclassified">
        <lane id="-181956886#1_0" index="0" disallow="tram rail_urban rail rail_electric rail_fast ship" speed="13.89" length="47.60" shape="195.33,355.48 230.96,355.94"/>
    </edge>
    <edge id="-181956910" from="1922999149" to="3134646680" priority="4" type="highway.unclassified">
        <lane id="-181956910_0" index="0" disallow="tram rail_urban rail rail_electric rail_fast ship" speed="13.89" length="24.00" shape="189.48,364.29 188.90,381.03"/>
    </edge>
    <edge id="-181957070" from="1922999057" to="1922998962" priority="4" type="highway.unclassified">
        <lane id="-181957070_0" index="0" disallow="tram rail_urban rail rail_electric rail_fast ship" speed="13.89" length="36.61" shape="423.12,308.63 422.86,286.61"/>
    </edge>
    <edge id="-181957745" from="7020707138" to="1922999209" priority="4" type="highway.unclassified">
        <lane id="-181957745_0" index="0" disallow="tram rail_urban rail rail_electric rail_fast ship" speed="13.89" length="14.54" shape="343.78,384.09 344.03,376.11"/>
    </edge>
    <edge id="-181960445#0" from="cluster_7020987271_7020987402" to="1922998962" priority="4" type="highway.unclassified" shape="455.28,279.45 424.38,279.35">
        <lane id="-181960445#0_0" index="0" disallow="tram rail_urban rail rail_electric rail_fast ship" speed="13.89" length="32.50" shape="450.54,281.03 431.62,280.97"/>
    </edge>
    <edge id="-181960445#2" from="7020987446" to="cluster_7020987271_7020987402" priority="4" type="highway.unclassified" shape="470.77,279.49 458.48,279.46">
        <lane id="-181960445#2_0" index="0" disallow="tram rail_urban rail rail_electric rail_fast ship" speed="13.89" length="13.89" shape="466.06,281.08 463.14,281.07"/>
    </edge>
    <edge id="-181960445#3" from="1922998982" to="7020987446" priority="4" type="highway.unclassified">
        <lane id="-181960445#3_0" index="0" disallow="tram rail_urban rail rail_electric rail_fast ship" speed="13.89" length="35.01" shape="500.14,281.18 475.46,281.10"/>
    </edge>
    <edge id="-181960445#4" from="7020987396" to="1922998982" priority="4" type="highway.unclassified">
        <lane id="-181960445#4_0" index="0" disallow="tram rail_urban rail rail_electric rail_fast ship" speed="13.89" length="13.86" shape="515.04,281.38 511.37,281.31"/>
    </edge>
    <edge id="-181960445#5" from="7020987394" to="7020987396" priority="4" type="highway.unclassified">
        <lane id="-181960445#5_0" index="0" disallow="tram rail_urban rail rail_electric rail_fast ship" speed="13.89" length="16.77" shape="531.75,281.69 524.44,281.55"/>
    </edge>
    <edge id="-181960445#6" from="7020987472" to="7020987394" priority="4" type="highway.unclassified">
        <lane id="-181960445#6_0" index="0" disallow="tram rail_urban rail rail_electric rail_fast ship" speed="13.89" length="21.15" shape="555.16,282.12 541.16,281.86"/>
    </edge>
    <edge id="-181960445#7" from="2494956803" to="7020987472" priority="4" type="highway.unclassified">
        <lane id="-181960445#7_0" index="0" disallow="tram rail_urban rail rail_electric rail_fast ship" speed="13.89" length="10.97" shape="565.23,282.31 560.16,282.21"/>
    </edge>
    <edge id="-181960445#8" from="2494956804" to="2494956803" priority="4" type="highway.unclassified">
        <lane id="-181960445#8_0" index="0" disallow="tram rail_urban rail rail_electric rail_fast ship" speed="13.89" length="3.88" shape="570.08,282.32 569.88,282.32"/>
    </edge>
    <edge id="-181960445#9" from="832530069" to="2494956804" priority="4" type="highway.unclassified">
        <lane id="-181960445#9_0" index="0" disallow="tram rail_urban rail rail_electric rail_fast ship" speed="13.89" length="9.16" shape="573.53,282.23 573.33,282.23"/>
    </edge>
    <edge id="-182104564#0" from="1924467753" to="1924467724" priority="4" type="highway.unclassified">
        <lane id="-182104564#0_0" index="0" disallow="tram rail_urban rail rail_electric rail_fast ship" speed="13.89" length="26.21" shape="368.84,45.93 369.00,26.95"/>
    </edge>
    <edge id="-182104564#1" from="cluster_1786790552_4349798905" to="1924467753" priority="4" type="highway.unclassified" shape="370.39,91.97 370.37,53.17">
        <lane id="-182104564#1_0" index="0" disallow="tram rail_urban rail rail_electric rail_fast ship" speed="13.89" length="40.32" shape="368.78,85.32 368.77,60.38"/>
    </edge>
    <edge id="-182104692#0" from="6845098914" to="1922999048" priority="4" type="highway.unclassified">
        <lane id="-182104692#0_0" index="0" disallow="tram rail_urban rail rail_electric rail_fast ship" speed="13.89" length="24.85" shape="190.43,296.23 190.27,307.33"/>
    </edge>
    <edge id="-182104692#1" from="4349798900" to="6845098914" priority="4" type="highway.unclassified">
        <lane id="-182104692#1_0" index="0" disallow="tram rail_urban rail rail_electric rail_fast ship" speed="13.89" length="39.43" shape="190.48,256.69 190.53,281.75"/>
    </edge>
    <edge id="-182104692#2" from="7018298898" to="4349798900" priority="4" type="highway.unclassified">
        <lane id="-182104692#2_0" index="0" disallow="tram rail_urban rail rail_electric rail_fast ship" speed="13.89" length="6.38" shape="190.54,246.34 190.54,246.54"/>
    </edge>
    <edge id="-182104692#3" from="6845098915" to="7018298898" priority="4" type="highway.unclassified">
        <lane id="-182104692#3_0" index="0" disallow="tram rail_urban rail rail_electric rail_fast ship" speed="13.89" length="18.53" shape="190.90,231.86 190.80,235.97"/>
    </edge>
    <edge id="-182104692#4" from="7119291417" to="6845098915" priority="4" type="highway.unclassified">
        <lane id="-182104692#4_0" index="0" disallow="tram rail_urban rail rail_electric rail_fast ship" speed="13.89" length="11.34" shape="191.25,217.62 191.24,217.82"/>
    </edge>
    <edge id="-182104692#5" from="1924467828" to="7119291417" priority="4" type="highway.unclassified">
        <lane id="-182104692#5_0" index="0" disallow="tram rail_urban rail rail_electric rail_fast ship" speed="13.89" length="13.67" shape="191.62,202.19 191.47,208.57"/>
    </edge>
    <edge id="-182104733#0" from="cluster_4349798945_6993920041" to="4349798949" priority="4" type="highway.unclassified" shape="142.80,113.65 141.77,87.72">
        <lane id="-182104733#0_0" index="0" disallow="tram rail_urban rail rail_electric rail_fast ship" speed="13.89" length="27.41" shape="140.97,107.93 140.39,93.48"/>
    </edge>
    <edge id="-182104733#2" from="cluster_1924467801_6993920043_7015747166" to="cluster_4349798945_6993920041" priority="4" type="highway.unclassified" shape="143.29,140.06 142.85,116.58">
        <lane id="-182104733#2_0" index="0" disallow="tram rail_urban rail rail_electric rail_fast ship" speed="13.89" length="28.91" shape="141.55,132.77 141.38,123.83"/>
    </edge>
    <edge id="-182104736#0" from="7020705865" to="1924467875" priority="4" type="highway.unclassified">
        <lane id="-182104736#0_0" index="0" disallow="tram rail_urban rail rail_electric rail_fast ship" speed="13.89" length="25.02" shape="348.04,253.69 361.10,253.66"/>
    </edge>
    <edge id="-182104736#1" from="1924467874" to="7020705865" priority="4" type="highway.unclassified">
        <lane id="-182104736#1_0" index="0" disallow="tram rail_urban rail rail_electric rail_fast ship" speed="13.89" length="84.03" shape="262.44,253.83 338.64,253.70"/>
    </edge>
    <edge id="-182104750#0" from="6990024842" to="1924467830" priority="4" type="highway.unclassified">
        <lane id="-182104750#0_0" index="0" disallow="tram rail_urban rail rail_electric rail_fast ship" speed="13.89" length="39.47" shape="366.80,235.27 366.90,203.13"/>
    </edge>
    <edge id="-182104750#1" from="1924467875" to="6990024842" priority="4" type="highway.unclassified">
        <lane id="-182104750#1_0" index="0" disallow="tram rail_urban rail rail_electric rail_fast ship" speed="13.89" length="15.16" shape="366.76,248.06 366.78,244.70"/>
    </edge>
    <edge id="-182104750#2" from="1922998989" to="1924467875" priority="4" type="highway.unclassified">
        <lane id="-182104750#2_0" index="0" disallow="tram rail_urban rail rail_electric rail_fast ship" speed="13.89" length="30.65" shape="366.52,278.75 366.68,262.47"/>
    </edge>
    <edge id="-182104750#3" from="1922999055" to="1922998989" priority="4" type="highway.unclassified">
        <lane id="-182104750#3_0" index="0" disallow="tram rail_urban rail rail_electric rail_fast ship" speed="13.89" length="29.21" shape="366.44,307.91 366.45,293.13"/>
    </edge>
    <edge id="-182104774" from="cluster_1924467797_6988424924" to="1924467798" priority="4" type="highway.unclassified" shape="417.52,132.93 490.01,133.36">
        <lane id="-182104774_0" index="0" disallow="tram rail_urban rail rail_electric rail_fast ship" speed="13.89" length="74.10" shape="424.66,131.37 482.26,131.71"/>
    </edge>
    <edge id="-182104807#0" from="4349798942" to="cluster_1924467801_6993920043_7015747166" priority="4" type="highway.unclassified" shape="144.80,164.43 143.45,148.41">
        <lane id="-182104807#0_0" index="0" disallow="tram rail_urban rail rail_electric rail_fast ship" speed="13.89" length="20.46" shape="142.79,159.65 142.44,155.46"/>
    </edge>
    <edge id="-182104807#1" from="7010100903" to="4349798942" priority="4" type="highway.unclassified">
        <lane id="-182104807#1_0" index="0" disallow="tram rail_urban rail rail_electric rail_fast ship" speed="13.89" length="21.37" shape="143.41,181.11 143.26,169.16"/>
    </edge>
    <edge id="-182104807#2" from="1924467827" to="7010100903" priority="4" type="highway.unclassified">
        <lane id="-182104807#2_0" index="0" disallow="tram rail_urban rail rail_electric rail_fast ship" speed="13.89" length="12.73" shape="143.59,195.98 143.53,190.51"/>
    </edge>
    <edge id="-238560605#0" from="2494956805" to="832530069" priority="4" type="highway.unclassified">
        <lane id="-238560605#0_0" index="0" disallow="tram rail_urban rail rail_electric rail_fast ship" speed="13.89" length="10.23" shape="590.71,282.44 590.51,282.43"/>
    </edge>
    <edge id="-238560605#1" from="7021111963" to="2494956805" priority="4" type="highway.unclassified">
        <lane id="-238560605#1_0" index="0" disallow="tram rail_urban rail rail_electric rail_fast ship" speed="13.89" length="7.00" shape="594.65,282.44 594.45,282.44"/>
    </edge>
    <edge id="-238560605#2" from="2463829082" to="7021111963" priority="4" type="highway.unclassified">
        <lane id="-238560605#2_0" index="0" disallow="tram rail_urban rail rail_electric rail_fast ship" speed="13.89" length="48.81" shape="647.60,281.86 603.56,282.35"/>
    </edge>
    <edge id="-238647877#0" from="7015974020" to="1922999046" priority="4" type="highway.unclassified">
        <lane id="-238647877#0_0" index="0" disallow="tram rail_urban rail rail_electric rail_fast ship" speed="13.89" length="17.62" shape="110.64,315.36 104.88,315.23"/>
    </edge>
    <edge id="-238647877#1" from="cluster_4349798889_7015973989" to="7015974020" priority="4" type="highway.unclassified" shape="127.23,314.15 115.32,313.87">
        <lane id="-238647877#1_0" index="0" disallow="tram rail_urban rail rail_electric rail_fast ship" speed="13.89" length="16.40" shape="120.04,315.58 119.72,315.57"/>
    </edge>
    <edge id="-238647877#3" from="1922999048" to="cluster_4349798889_7015973989" priority="4" type="highway.unclassified" shape="188.58,313.84 184.57,314.91 136.19,314.35">
        <lane id="-238647877#3_0" index="0" disallow="tram rail_urban rail rail_electric rail_fast ship" speed="13.89" length="56.94" shape="180.91,316.47 143.28,316.03"/>
    </edge>
    <edge id="-238647880#0" from="2496061232" to="1786790329" priority="4" type="highway.unclassified">
        <lane id="-238647880#0_0" index="0" disallow="tram rail_urban rail rail_electric rail_fast ship" speed="13.89" length="5.06" shape="19.89,199.31 19.69,199.32"/>
    </edge>
    <edge id="-238647880#1" from="1786790474" to="2496061232" priority="4" type="highway.unclassified">
        <lane id="-238647880#1_0" index="0" disallow="tram rail_urban rail rail_electric rail_fast ship" speed="13.89" length="15.84" shape="28.68,199.38 22.64,199.33"/>
    </edge>