<?xml version="1.0" encoding="UTF-8"?>

<!-- generated on 2024-05-31 16:30:40 by Eclipse SUMO duarouter Version 1.16.0
<configuration xmlns:xsi="http://www.w3.org/2001/XMLSchema-instance" xsi:noNamespaceSchemaLocation="http://sumo.dlr.de/xsd/duarouterConfiguration.xsd">

    <input>
        <net-file value="okayamastation.net.xml"/>
        <route-files value="okayamastation.trips.xml"/>
    </input>

    <output>
        <output-file value="okayamastation.rou.xml"/>
    </output>

    <report>
        <ignore-errors value="true"/>
    </report>

</configuration>
-->

<routes xmlns:xsi="http://www.w3.org/2001/XMLSchema-instance" xsi:noNamespaceSchemaLocation="http://sumo.dlr.de/xsd/routes_file.xsd">
    <vehicle id="0" depart="0.00">
        <route edges="182104736#1 182105087#0 182105087#1 -734086165#4 -734086165#3 -734086165#2 -437156600#1 -437156599 750066833#1 544507623#0 544507623#1 544507623#2 -462320099#1 241925275#1 -167273523#0"/>
    </vehicle>
    <vehicle id="1" depart="1.00">
        <route edges="-437156592#3 -437156592#2 437156595 437156594#3 -730831013#0 -182104692#0 181955508#0 750609674 181955346#1 730831016#0 -181955491#1 -181955491#0 182104750#3 -750938070#1 -750938070#0 -181957070 181960445#0 181960445#2 181960445#3 181960445#4 181960445#5 181960445#6 181960445#7 181960445#8 181960445#9 -241925219#2"/>
    </vehicle>
    <vehicle id="2" depart="2.00">
        <route edges="238647881#7 238647881#8 238647881#9 238647881#10 182104733#0 -747451934#2 -747451934#1 -747451934#0 -437156600#1 -437156599 750066833#1 -167273553#2 -167273553#0 746653717 182104806#0 182104806#1 181957070 750938070#0 750938070#1 181955884#0 181955543#0 437156597#0 437156597#1 437156597#2 238560603#0"/>
    </vehicle>
    <vehicle id="3" depart="3.00">
        <route edges="437156609 750066834#0 750066834#1 750066834#2 -167273516#5 -167273516#4 -167273516#1 -167273516#0 238647880#2 238647880#3 181954477#1 181954477#2 181954477#3 181954477#4 -181955322#1 -181955322#0"/>
    </vehicle>
    <vehicle id="4" depart="4.00">
        <route edges="167273509#1 167273553#0 167273553#2 544507623#0 544507623#1 544507623#2 -462320099#1 -167273538#3 -167273538#2 -167273538#1"/>
    </vehicle>
    <vehicle id="6" depart="6.00">
        <route edges="-167273516#6 -167273516#5 -167273516#4 -167273516#1 -167273516#0 238647880#2 238647880#3 181954477#1 181954477#2 181954477#3 238647877#0 238647877#1 437156592#0 437156592#1 437156595 437156594#3 730831013#1 -437156592#0 -238647877#1"/>
    </vehicle>
    <vehicle id="7" depart="7.00">
        <route edges="182104750#3 -750938070#1 -750938070#0 -181957070 181960445#0 181960445#2 181960445#3 181960445#4 181960445#5 181960445#6 181960445#7 181960445#8 181960445#9 -241925219#2 181956002#2"/>
    </vehicle>
    <vehicle id="8" depart="8.00">
        <route edges="-238647880#3 -238647880#2 167273516#0 167273516#1 167273516#4 437156607 -747451934#2 -747451934#1 -747451934#0 -437156600#1 -437156599 750066833#1 -167273553#2 -167273553#0 746653717 182104806#0 182104806#1 181960445#0 181960445#2 181960445#3"/>
    </vehicle>
    <vehicle id="9" depart="9.00">
        <route edges="243625120#1 243625120#2 -181957070 181960445#0 181960445#2 181960445#3 181956939 746653727#0 746653727#1 -167273548#2 182104774 167273553#2 167273553#4 -167273512#0"/>
    </vehicle>
    <vehicle id="10" depart="10.00">
        <route edges="243625120#0 -437156597#1 -437156597#0 181955543#2 181954660#0 181954660#1 181954660#2 181956179#1 181956886#0 181956886#1 181955322#0 181955322#1 -181954477#4 238647877#0 238647877#1"/>
    </vehicle>
    <vehicle id="11" depart="11.00">
        <route edges="-544507623#2 -544507623#1 -544507623#0 -167273553#2 -167273553#0 746653717 182104806#0 182104806#1 181957070 750938070#0 750938070#1 -182104750#3 -182104750#2 182104736#0 182104736#1 182105087#0 -730831014#1 -730831014#0 -182104692#3 -182104692#2"/>
    </vehicle>
    <vehicle id="12" depart="12.00">
        <route edges="747451934#0 747451934#1 747451934#2 182104733#2 437156606#0 437156606#1 437156606#2 -167273516#1 -167273516#0 238647880#2 238647880#3 181954477#1 181954477#2 181954477#3 238647877#0 238647877#1 437156592#0 -730831013#1 -730831013#0"/>
    </vehicle>
    <vehicle id="13" depart="13.00">
        <route edges="-181955491#0 182104750#3 181955884#0 181955543#0 181955543#2 181954660#0 181954660#1 181954660#2 181956179#1 181956886#0 181956886#1 -181955508#1 -181955508#0"/>
    </vehicle>
    <vehicle id="14" depart="14.00">
        <route edges="437156594#1 437156596#2 -182104692#1 -182104692#0 181955508#0 750609674 181955346#1 730831016#0 -181955491#1 -181955491#0 182104750#3 -750938070#1 -750938070#0 -181957070 181960445#0 181960445#2 181960445#3 181960445#4 181960445#5 181960445#6 181960445#7 181960445#8 181960445#9"/>
    </vehicle>
    <vehicle id="15" depart="15.00">
        <route edges="243625120#0 -437156597#1 -437156597#0 -181955543#0 181955884#1 181955884#2 730831016#0 730831016#1 182105087#0 182105087#1 -734086165#4 -734086165#3 -734086165#2 -734086165#0 238647881#5"/>
    </vehicle>
    <vehicle id="16" depart="16.00">
        <route edges="181955508#1 -181956886#1 -181956886#0 181955346#0 181955346#1 730831016#0 730831016#1 182105087#0 182105087#1 -734086165#4 -734086165#3 -734086165#2 -437156600#1 -437156599 750066833#1"/>
    </vehicle>
    <vehicle id="17" depart="17.00">
        <route edges="-747451934#1 -747451934#0 -437156600#1 -437156599 750066833#1 -167273553#2 -167273553#0 746653717 182104806#0 182104806#1 181957070 750938070#0 750938070#1 181955884#0 181955543#0 181955543#2 181954660#0 181954660#1 181954660#2 181956179#1"/>
    </vehicle>
    <vehicle id="18" depart="18.00">
        <route edges="437156592#1 437156595 -437156594#2 437156596#2 182104692#2"/>
    </vehicle>
    <vehicle id="19" depart="19.00">
        <route edges="437156596#2 182104692#2 182104692#3 730831014#0 730831014#1 182105087#1 -734086165#4 -734086165#3 -734086165#2 -437156600#1 -437156599 750066833#1 -167273553#2 -167273553#0 746653717 182104806#0 182104806#1 181957070"/>
    </vehicle>
    <vehicle id="20" depart="20.00">
        <route edges="238647877#3 181955508#0 750609674 181955346#1 730831016#0 -181955491#1 -181955491#0 182104750#3 -750938070#1 -750938070#0 -181957070 181960445#0 181960445#2 181960445#3 181960445#4 181960445#5 181960445#6 181960445#7 181960445#8 181960445#9 241925219#3 241925219#4 -167273547#6 -167273547#4 -167273547#3"/>
    </vehicle>
    <vehicle id="21" depart="21.00">
        <route edges="-241925219#10 -241925219#9 -241925219#8 -241925219#6 -167273547#6 -167273547#4 -167273547#3 -167273547#2 -167273547#1 -167273547#0 182104806#1 181957070 750938070#0 750938070#1 181955884#0 181955543#0 181955543#2 181957224 243625120#0 -437156597#1 -437156597#0"/>
    </vehicle>
    <vehicle id="22" depart="22.00">
        <route edges="-181954660#0 -181955543#2 437156597#0 437156597#1 437156597#2 241925295#2 241925295#3 181956939 746653727#0 746653727#1 -167273548#2 -167273548#1 544507623#1 544507623#2 -241925219#10 -241925219#9 -241925219#8"/>
    </vehicle>
    <vehicle id="23" depart="23.00">
        <route edges="-181955508#1 -181955508#0 182104692#0 730831013#0 -437156594#3"/>
    </vehicle>
    <vehicle id="24" depart="24.00">
        <route edges="182104733#2 437156606#0 437156606#1 437156606#2 167273516#4 437156607 -747451934#2 -747451934#1"/>
    </vehicle>
    <vehicle id="25" depart="25.00">
        <route edges="-734086165#3 -734086165#2 -437156600#1 -437156599 750066833#1 -167273553#2 -167273553#0 746653717 182104806#0 182104806#1 181957070 750938070#0 750938070#1 181955884#0 181955884#1 181955884#2 181956736#0 181956736#1 181956736#2 -238647877#3 -238647877#1 -238647877#0 -181954477#3 -181954477#2 -181954477#1 -238647880#3 -238647880#2"/>
    </vehicle>
    <vehicle id="26" depart="26.00">
        <route edges="-437156592#0 238647877#3 182104692#0 182104692#1 182104692#2 -750609698#1 -750609698#0 730831015#1"/>
    </vehicle>
    <vehicle id="27" depart="27.00">
        <route edges="182104750#2 181955491#0 181955491#1 730831016#1 182105087#0 182105087#1 -734086165#4 -734086165#3 -734086165#2 -734086165#0 167273500#0 167273500#1 167273500#2 -167273512#3 182104564#1"/>
    </vehicle>
    <vehicle id="28" depart="28.00">
        <route edges="-182104733#2 -747451934#2 -747451934#1 -747451934#0 -734086165#0 238647881#5"/>
    </vehicle>
    <vehicle id="29" depart="29.00">
        <route edges="-182104692#4 730831014#0 730831014#1 182105087#1 -734086165#4 -734086165#3 -734086165#2 -734086165#0 167273500#0 167273500#1 167273500#2 -167273512#3 -167273512#2 -167273553#4 -750066833#1"/>
    </vehicle>
    <vehicle id="30" depart="30.00">
        <route edges="750609674 181955346#1 730831016#0 730831016#1 -182104736#1 -182104736#0 182104750#2"/>
    </vehicle>
    <vehicle id="31" depart="31.00">
        <route edges="181956179#0 -181954660#2 -181954660#1 -181954660#0 -181955543#2 437156597#0 437156597#1 437156597#2 241925295#2 241925295#3 181960445#4 181960445#5 181960445#6 181960445#7 181960445#8 181960445#9 238560605#0"/>
    </vehicle>
    <vehicle id="32" depart="32.00">
        <route edges="437156593#2 437156594#1 437156596#2 182104692#2 182104692#3 730831014#0 730831014#1 182105087#1 -734086165#4 -734086165#3 -734086165#2 -734086165#0 167273500#0 167273500#1 167273500#2 -167273512#3 -167273512#2 -167273512#0 -241925250#1 -241925219#15 241925289#1 241925263#0 241925263#1"/>
    </vehicle>
    <vehicle id="33" depart="33.00">
        <route edges="-241925219#13 -462320099#1 -167273538#3 -167273538#2"/>
    </vehicle>
    <vehicle id="34" depart="34.00">
        <route edges="-437156599 750066833#1 -167273553#2 -167273553#0 746653717 182104806#0 182104806#1 181957070 750938070#0 750938070#1 181955884#0 181955884#1 181955884#2 181956736#0 181956736#1 181956736#2 182104692#0 182104692#1 -437156596#2 -437156594#1 -437156593#2"/>
    </vehicle>
    <vehicle id="36" depart="36.00">
        <route edges="437156599 437156600#1 -734086165#0 167273500#0 167273500#1 167273500#2 -167273512#3 -167273512#2 -167273512#0 167273548#0 544507623#1 544507623#2 -462320099#1"/>
    </vehicle>
    <vehicle id="37" depart="37.00">
        <route edges="182104806#0 182104806#1 181957070 750938070#0 750938070#1 181955884#0 181955884#1 181955884#2 730831016#0 -181955491#1 -181955491#0 182104750#3 -750938070#1"/>
    </vehicle>
    <vehicle id="39" depart="39.00">
        <route edges="-242035812#4 -242035812#3 -242035812#2"/>
    </vehicle>
    <vehicle id="40" depart="40.00">
        <route edges="181956179#1 181955346#0 181955346#1 181956736#0 181956736#1 181956736#2 182104692#0 730831013#0 -437156594#3 -437156595 437156592#2 437156592#3 -437156593#0"/>
    </vehicle>
    <vehicle id="41" depart="41.00">
        <route edges="181956939 746653727#0 746653727#1 -167273548#2 182104774 167273553#2 544507623#0"/>
    </vehicle>
    <vehicle id="42" depart="42.00">
        <route edges="-750609698#1 -750609698#0 -730831015#0 730831014#1 182105087#1 -734086165#4 -734086165#3 -734086165#2 -734086165#0 167273500#0 167273500#1 167273500#2 -167273512#3 -167273512#2 -167273512#0 -241925250#1 -241925219#15 -241925219#13"/>
    </vehicle>
    <vehicle id="44" depart="44.00">
        <route edges="-181955322#1 -181955322#0 -181955508#1 750609674 181955346#1 730831016#0 -181955491#1 -181955491#0 182104750#3 -750938070#1 -750938070#0 -181957070 181960445#0 181960445#2 181960445#3 181960445#4 181960445#5 181960445#6 181960445#7 181960445#8 181960445#9 241925219#3 241925219#4 -167273547#6 -167273547#4"/>
    </vehicle>
    <vehicle id="45" depart="45.00">
        <route edges="-181956624#1 181954477#2 181954477#3 238647877#0 238647877#1 437156592#0 437156592#1 437156595 -437156594#2 437156596#2 182104692#2 182104692#3 730831014#0 730831014#1 182105087#1 -734086165#4 -734086165#3 -734086165#2 -734086165#0 238647881#5 238647881#6 238647881#7 238647881#8 238647881#9 238647881#10 182104733#0"/>
    </vehicle>
    <vehicle id="46" depart="46.00">
        <route edges="241925295#1 241925295#2 241925295#3 181956939 746653727#0 746653727#1 -167273548#2 -167273548#1 -167273548#0 167273512#0 167273512#2"/>
    </vehicle>
    <vehicle id="47" depart="47.00">
        <route edges="-167273553#0 746653717 182104806#0 182104806#1 181957070 750938070#0 750938070#1 181955884#0 181955884#1 181955884#2 181956736#0 181956736#1 181956736#2 182104692#0 182104692#1 -437156596#2 -437156594#1 -437156593#2 -750335459"/>
    </vehicle>
    <vehicle id="48" depart="48.00">
        <route edges="750938070#0 750938070#1 181955884#0 181955884#1 181955884#2 181956736#0 181956736#1 181956736#2 181955508#0"/>
    </vehicle>
    <vehicle id="49" depart="49.00">
        <route edges="750066735 238647881#7 238647881#8 238647881#9 238647881#10 750066834#0 750066834#1 750066834#2 -167273516#5 -167273516#4 -167273516#1 -167273516#0 238647880#2 238647880#3 181954477#1 181954477#2 181954477#3 238647877#0 238647877#1 437156592#0 437156592#1 437156592#2 437156596#0 437156596#1"/>
    </vehicle>
    <vehicle id="50" depart="50.00">
        <route edges="-167273512#2 -167273553#4 -750066833#1 238647881#0 238647881#1 238647881#2 238647881#3 238647881#4 238647881#5 238647881#6 238647881#7 238647881#8 238647881#9 238647881#10"/>
    </vehicle>
    <vehicle id="51" depart="51.00">
        <route edges="238560602#0 238560602#1 -167273547#6 -167273547#4 -167273547#3 -167273547#2 -167273547#1 -167273547#0 182104806#1 181957070 750938070#0 750938070#1 181955884#0 181955543#0 181955543#2"/>
    </vehicle>
    <vehicle id="52" depart="52.00">
        <route edges="-437156592#0 238647877#3 181955508#0 750609674 181955346#1 730831016#0 730831016#1 -182104736#1 -182104736#0 182104750#2"/>
    </vehicle>
    <vehicle id="53" depart="53.00">
        <route edges="-181956624#2 -181956624#1 -181954477#1 -238647880#3 -238647880#2 167273516#0 167273516#1 167273516#4"/>
    </vehicle>
    <vehicle id="54" depart="54.00">
        <route edges="167273538#3 462320099#1 -544507623#2 -544507623#1 -544507623#0 -750066833#1 238647881#0 238647881#1 238647881#2 238647881#3 238647881#4 734086165#0 734086165#2 734086165#3 734086165#4"/>
    </vehicle>
    <vehicle id="55" depart="55.00">
        <route edges="437156599 437156600#1 747451934#0 747451934#1 747451934#2 182104733#2 437156606#0 437156606#1 437156606#2 -167273516#1 -167273516#0 238647880#2 238647880#3 181954477#1 181954477#2 181954477#3 238647877#0 238647877#1 437156592#0 437156592#1 437156592#2 437156592#3 -437156593#0"/>
    </vehicle>
    <vehicle id="56" depart="56.00">
        <route edges="181954660#1 181954660#2 181956179#1 181955346#0 181955346#1 730831016#0 -181955491#1 -181955491#0 -182104750#2"/>
    </vehicle>
    <vehicle id="57" depart="57.00">
        <route edges="69562718#1 -167273523#1 -241925275#1 462320099#1 -544507623#2 -544507623#1 -544507623#0 -167273553#2 -167273553#0 746653717 182104806#0 182104806#1 181957070 750938070#0 750938070#1 181955884#0 181955543#0 437156597#0 437156597#1 437156597#2"/>
    </vehicle>
    <vehicle id="59" depart="59.00">
        <route edges="181960445#8 181960445#9 -241925219#2 181956002#2 181956002#3 238560601#0 238560601#1 238560601#2 750938070#0 750938070#1 181955884#0 181955884#1 181955884#2 181956736#0 181956736#1 181956736#2 182104692#0 730831013#0 -437156594#3 -437156594#2 437156596#2 -182104692#1"/>
    </vehicle>
    <vehicle id="60" depart="60.00">
        <route edges="241925219#5 241925219#7 241925219#9 241925219#10 -544507623#2 -544507623#1 -544507623#0 -167273553#2 -167273553#0 746653717 182104806#0 182104806#1 181957070 750938070#0 750938070#1 181955884#0"/>
    </vehicle>
    <vehicle id="61" depart="61.00">
        <route edges="241925263#2 241925263#3 462320099#1 -544507623#2 -544507623#1 -544507623#0 -167273553#2 -167273553#0 746653717 182104806#0 182104806#1 181957070 750938070#0 750938070#1 181955884#0 181955884#1 181955884#2 181956736#0 181956736#1 181956736#2 181955508#0 181955508#1"/>
    </vehicle>
    <vehicle id="62" depart="62.00">
        <route edges="-167273502 238647881#10 182104733#0 -747451934#2 -747451934#1 -747451934#0 -734086165#0 167273500#0 167273500#1 167273500#2 -167273512#3 -167273512#2 -167273512#0 167273548#0 -544507623#0"/>
    </vehicle>
    <vehicle id="63" depart="63.00">
        <route edges="-167273516#1 -167273516#0 238647880#2 238647880#3 181954477#1 181954477#2 181954477#3 238647877#0 238647877#1 437156592#0 437156592#1 437156595 -437156594#2 437156596#2 182104692#2 182104692#3 730831014#0"/>
    </vehicle>
    <vehicle id="64" depart="64.00">
        <route edges="437156600#1 747451934#0 747451934#1 747451934#2 182104733#2 437156606#0 437156606#1 437156606#2 -167273516#1 -167273516#0 238647880#2 238647880#3 181954477#1 181954477#2 181954477#3 238647877#0 238647877#1 437156592#0 437156592#1"/>
    </vehicle>
    <vehicle id="65" depart="65.00">
        <route edges="-437156597#1 -437156597#0 181955543#2 181957224 243625120#0 437156597#2 241925295#2 241925295#3 181956939 746653727#0 746653727#1 -167273548#2"/>
    </vehicle>
    <vehicle id="66" depart="66.00">
        <route edges="437156600#1 734086165#2"/>
    </vehicle>
    <vehicle id="67" depart="67.00">
        <route edges="-181954660#2 -181954660#1 -181954660#0 -181955543#2 -181955543#0 181955884#1 181955884#2 730831016#0 730831016#1 182105087#0 182105087#1 -734086165#4 -734086165#3 -734086165#2 747451934#0 747451934#1 747451934#2 182104733#2 437156606#0 437156606#1 437156606#2 -167273516#1 -167273516#0 238647880#2 238647880#3 181954477#1 181954477#2"/>
    </vehicle>
    <vehicle id="68" depart="68.00">
        <route edges="-167273553#4 -167273553#2 -167273553#0 746653717 182104806#0 182104806#1 181960445#0 181960445#2 181960445#3 181960445#4 181960445#5 181960445#6 181960445#7 181960445#8 181960445#9 241925219#3 241925219#4"/>
    </vehicle>
    <vehicle id="69" depart="69.00">
        <route edges="241925219#7 69562718#0 69562718#1 -167273523#1 -241925275#1 462320099#1 -241925219#10 -241925219#9 -241925219#8 -241925219#6 -241925219#4 -241925219#3 -181960445#9 -181960445#8 -181960445#7 -181960445#6 -181960445#5 -181960445#4"/>
    </vehicle>
    <vehicle id="70" depart="70.00">
        <route edges="167273548#1 182104774 -167273553#0 746653717 182104806#0 167273547#0 167273547#1 167273547#2 167273547#3 167273547#4 167273547#6 -241925219#4 -241925219#3 -241925219#2 181956002#2 181956002#3"/>
    </vehicle>
    <vehicle id="71" depart="71.00">
        <route edges="-242035812#4 -242035812#3 -242035812#2 -242035812#0 238647880#0 238647880#1 238647880#2 238647880#3 181954477#1 181954477#2 181954477#3 238647877#0 238647877#1 238647877#3 181955508#0 750609674 181955346#1 730831016#0 -181955491#1 -181955491#0 182104750#3 -750938070#1 437156598#0"/>
    </vehicle>
    <vehicle id="72" depart="72.00">
        <route edges="167273512#0 -167273553#4 -167273553#2 -167273553#0 746653717 182104806#0 182104806#1 181957070 750938070#0 750938070#1 181955884#0 181955884#1 181955884#2 181956736#0 181956736#1 181956736#2 -238647877#3 -238647877#1 -238647877#0 -181954477#3 -181954477#2 -181954477#1 -238647880#3"/>
    </vehicle>
    <vehicle id="73" depart="73.00">
        <route edges="181955543#0 181955543#2 181954660#0 181954660#1 181954660#2 181956179#1 181955346#0 181955346#1 730831016#0 730831016#1 182105087#0 182105087#1 -734086165#4 -734086165#3 -734086165#2 -734086165#0 238647881#5"/>
    </vehicle>
    <vehicle id="74" depart="74.00">
        <route edges="-238560605#2 -238560605#1 -238560605#0 -181960445#9 -181960445#8 -181960445#7 -181960445#6 -181960445#5 -181960445#4 181956939 746653727#0 746653727#1 -167273548#2 182104774 167273553#2 -750066833#1 238647881#0 238647881#1 238647881#2 238647881#3 238647881#4 238647881#5 238647881#6 238647881#7 238647881#8 238647881#9 238647881#10 750066834#0 750066834#1 750066834#2 -167273516#5 -167273516#4 -437156606#2"/>
    </vehicle>
    <vehicle id="75" depart="75.00">
        <route edges="750938070#0 750938070#1 181955884#0 181955543#0 437156597#0 437156597#1 437156597#2 241925295#2 241925295#3 181956939 -167273547#1 -167273547#0 182104806#1"/>
    </vehicle>
    <vehicle id="76" depart="76.00">
        <route edges="167273516#4 167273516#5 167273546#0 -242035812#0 238647880#0 238647880#1 238647880#2 238647880#3 181954477#1 181954477#2 181954477#3 238647877#0 238647877#1 238647877#3 181955508#0 181955508#1 -181956886#1 -181956886#0 181955346#0"/>
    </vehicle>
    <vehicle id="77" depart="77.00">
        <route edges="-181957070 181960445#0 181960445#2 181960445#3 181960445#4 181960445#5 181960445#6 181960445#7 181960445#8 181960445#9 -241925219#2"/>
    </vehicle>
    <vehicle id="78" depart="78.00">
        <route edges="-544507623#1 -544507623#0 -167273553#2 -167273553#0 746653717 182104806#0 182104806#1 181960445#0 181960445#2 181960445#3"/>
    </vehicle>
    <vehicle id="79" depart="79.00">
        <route edges="-241925219#13 -544507623#2 -544507623#1 -167273548#0 -241925250#1 -241925219#15"/>
    </vehicle>
    <vehicle id="80" depart="80.00">
        <route edges="-181954477#1 -238647880#3 -238647880#2 167273516#0 167273516#1 167273516#4 437156607 182104733#2"/>
    </vehicle>
    <vehicle id="81" depart="81.00">
        <route edges="-241925219#13 -241925219#10 -241925219#9 69562718#0"/>
    </vehicle>
    <vehicle id="82" depart="82.00">
        <route edges="437156596#1 437156594#2 -437156595 -437156592#1 -437156592#0 -238647877#1 -238647877#0 -181954477#3 -181954477#2"/>
    </vehicle>
    <vehicle id="83" depart="83.00">
        <route edges="-241925219#2 181956002#2 181956002#3 238560601#0 238560601#1"/>
    </vehicle>
    <vehicle id="85" depart="85.00">
        <route edges="730831016#0 -181955491#1 -181955491#0 182104750#3 181955884#0 181955543#0 181955543#2 181954660#0 181954660#1 181954660#2 181956179#1 181956886#0 181956886#1"/>
    </vehicle>
    <vehicle id="86" depart="86.00">
        <route edges="167273548#0 544507623#1 544507623#2 -462320099#1 241925275#1"/>
    </vehicle>
    <vehicle id="88" depart="88.00">
        <route edges="-181955491#1 -181955491#0 182104750#3 181955884#0 181955884#1 181955884#2 181956736#0 181956736#1 181956736#2 -238647877#3 -238647877#1 -238647877#0 -181954477#3 -181954477#2 -181954477#1 -238647880#3 -238647880#2 167273516#0 167273516#1"/>
    </vehicle>
    <vehicle id="89" depart="89.00">
        <route edges="167273512#0 -167273553#4 -167273553#2 -167273553#0 746653717 182104806#0 167273547#0 167273547#1 167273547#2 167273547#3 167273547#4 167273547#6"/>
    </vehicle>
    <vehicle id="91" depart="91.00">
        <route edges="750066834#2 -167273516#5 -167273516#4 -167273516#1 -167273516#0 238647880#2 238647880#3 181954477#1 181954477#2 181954477#3 181954477#4 -181955322#1 -181955322#0 -181955508#1"/>
    </vehicle>
    <vehicle id="92" depart="92.00">
        <route edges="-750938070#1 -750938070#0 -181957070 181960445#0 181960445#2 181960445#3 181956939 -167273547#1 -167273547#0 182104806#1 181957070 750938070#0 750938070#1 181955884#0 181955884#1 181955884#2 181956736#0 181956736#1 181956736#2 -238647877#3 437156592#0 -730831013#1"/>
    </vehicle>
    <vehicle id="94" depart="94.00">
        <route edges="-182104807#1 -182104807#0 -182104733#2 -747451934#2 -747451934#1 -747451934#0 -734086165#0 167273500#0 167273500#1 167273500#2 -167273512#3 -167273512#2 -167273512#0 -241925250#1 -241925219#15 241925289#1 241925263#0 167273538#1 167273538#2 167273538#3"/>
    </vehicle>
    <vehicle id="95" depart="95.00">
        <route edges="167273509#1 746653717 182104806#0 182104806#1 181957070 750938070#0 750938070#1 181955884#0 181955884#1 181955884#2 181956736#0 181956736#1 181956736#2 182104692#0 730831013#0 -437156594#3"/>
    </vehicle>
    <vehicle id="96" depart="96.00">
        <route edges="-241925219#9 -241925219#8 -241925219#6 -241925219#4 -241925219#3 -241925219#2 -241925219#1 69562722#0 69562722#1 69562722#2"/>
    </vehicle>
    <vehicle id="97" depart="97.00">
        <route edges="167273523#0 -241925275#1 462320099#1 -544507623#2 -544507623#1 -544507623#0 -167273553#2 -167273553#0 746653717 182104806#0 182104806#1 181957070 750938070#0 750938070#1 181955884#0 181955884#1 181955884#2 181956736#0 181956736#1 181956736#2 182104692#0 730831013#0 -437156594#3 -437156595 437156592#2 437156596#0 437156596#1"/>
    </vehicle>
    <vehicle id="98" depart="98.00">
        <route edges="181955884#2 730831016#0 -181955491#1 -181955491#0 182104750#3 -750938070#1 -750938070#0 -181957070 181960445#0 181960445#2 181960445#3 181960445#4 181960445#5 181960445#6 181960445#7 181960445#8 181960445#9 241925219#3 241925219#4 -167273547#6"/>
    </vehicle>
    <vehicle id="99" depart="99.00">
        <route edges="750938070#1 181955884#0 181955884#1 181955884#2 181956736#0 181956736#1 181956736#2 182104692#0 730831013#0 -437156594#3 -437156595 437156592#2"/>
    </vehicle>
    <vehicle id="100" depart="100.00">
        <route edges="747451954 -734086165#3 -734086165#2 -437156600#1 -437156599 750066833#1 -167273553#2 -167273553#0 746653717 182104806#0 182104806#1 181957070 750938070#0 750938070#1 181955884#0 181955884#1 181955884#2 181956736#0 181956736#1 181956736#2 182104692#0 730831013#0 730831013#1"/>
    </vehicle>
    <vehicle id="101" depart="101.00">
        <route edges="437156594#1 437156596#2 -182104692#1 -182104692#0 181955508#0 750609674 181955346#1 730831016#0 730831016#1 -182104736#1 -182104736#0"/>
    </vehicle>
    <vehicle id="102" depart="102.00">
        <route edges="167273553#4 -167273512#0 167273548#0 544507623#1 544507623#2 -241925219#10 -241925219#9 -241925219#8 -241925219#6 -241925219#4 -241925219#3 -241925219#2 -241925219#1"/>
    </vehicle>
    <vehicle id="103" depart="103.00">
        <route edges="-750938070#0 -181957070 181960445#0 181960445#2 181960445#3 181956939 746653727#0 746653727#1 -167273548#2"/>
    </vehicle>
    <vehicle id="104" depart="104.00">
        <route edges="-747451934#1 -747451934#0 -437156600#1 -437156599 750066833#1 -167273553#2 -167273553#0 746653717 182104806#0 182104806#1 181957070 750938070#0 750938070#1 181955884#0 181955884#1 181955884#2 181956736#0 181956736#1 181956736#2 181955508#0 750609674"/>
    </vehicle>
    <vehicle id="105" depart="105.00">
        <route edges="-242035812#4 -242035812#3 -242035812#2 -242035812#0 238647880#0 238647880#1 167273516#0 167273516#1 167273516#4 437156607 -747451934#2 -747451934#1 -747451934#0 -437156600#1 -437156599 750066833#1 544507623#0 544507623#1 544507623#2 -462320099#1 241925275#1"/>
    </vehicle>
    <vehicle id="106" depart="106.00">
        <route edges="167273546#0 -242035812#0 238647880#0 238647880#1 167273516#0 167273516#1 167273516#4 437156607 -747451934#2 -747451934#1 -747451934#0 -437156600#1 -437156599 750066833#1 167273553#4 167273512#2"/>
    </vehicle>
    <vehicle id="107" depart="107.00">
        <route edges="747451934#0 747451934#1 747451934#2 -182104733#0 750066834#0 750066834#1 750066834#2 -167273516#5 437156607 -747451934#2 -747451934#1 -747451934#0 -437156600#1 -437156599 750066833#1 -167273553#2 -167273553#0 746653717 182104806#0 182104806#1 181957070 750938070#0"/>
    </vehicle>
    <vehicle id="108" depart="108.00">
        <route edges="181956002#3 241925295#3 181956939 746653727#0 746653727#1 -167273548#2 182104774 167273553#2 -750066833#1 238647881#0 238647881#1"/>
    </vehicle>
    <vehicle id="110" depart="110.00">
        <route edges="747451954 -734086165#3 -734086165#2 -437156600#1 -437156599 750066833#1 -167273553#2 -167273553#0 746653717 182104806#0 182104806#1 181957070 750938070#0 750938070#1 181955884#0 181955543#0 181955543#2 181957224"/>
    </vehicle>
    <vehicle id="111" depart="111.00">
        <route edges="181955543#2 181957224 243625120#0 437156597#2 241925295#2 241925295#3 181956939 746653727#0 746653727#1 -167273548#2 -167273548#1 544507623#1 544507623#2 241925219#13"/>
    </vehicle>
    <vehicle id="112" depart="112.00">
        <route edges="-167273548#1 -544507623#0 -167273553#2 -167273553#0 746653717 182104806#0 182104806#1 181960445#0"/>
    </vehicle>
    <vehicle id="113" depart="113.00">
        <route edges="181954660#2 181956179#1 181955346#0 181955346#1 181956736#0 181956736#1 181956736#2 182104692#0 182104692#1 -437156596#2 437156594#2 437156594#3"/>
    </vehicle>
    <vehicle id="114" depart="114.00">
        <route edges="-182104692#2 -182104692#1 -182104692#0 181955508#0 750609674 181955346#1 730831016#0 -181955491#1 -181955491#0 182104750#3 -750938070#1 -750938070#0 -181957070 181960445#0 181960445#2 181960445#3 181956939 746653727#0 746653727#1"/>
    </vehicle>
    <vehicle id="116" depart="116.00">
        <route edges="181960445#3 181956939 -167273547#1 -167273547#0 182104806#1 181957070 750938070#0 750938070#1 181955884#0 181955543#0 437156597#0 437156597#1 437156597#2 238560603#0"/>
    </vehicle>
    <vehicle id="117" depart="117.00">
        <route edges="-241925219#16 -241925219#15 -241925219#13 -241925219#10 -241925219#9 -241925219#8 -241925219#6 -241925219#4 -241925219#3 -241925219#2 181956002#2 181956002#3 238560601#0 238560601#1 238560601#2 -181957070"/>
    </vehicle>
    <vehicle id="119" depart="119.00">
        <route edges="181960445#2 181960445#3 181956939 -167273547#1 -167273547#0 182104806#1 181957070 750938070#0 750938070#1 181955884#0 181955884#1 181955884#2 181956736#0 181956736#1 181956736#2 182104692#0 182104692#1 182104692#2 182104692#3"/>
    </vehicle>
    <vehicle id="120" depart="120.00">
        <route edges="167273509#0 167273509#1 746653717 182104806#0 182104806#1 181960445#0"/>
    </vehicle>
    <vehicle id="121" depart="121.00">
        <route edges="181955322#1 -181954477#4 238647877#0 238647877#1 437156592#0 437156592#1 437156595 -437156594#2 437156596#2 182104692#2 182104692#3 730831014#0 730831015#0"/>
    </vehicle>
    <vehicle id="122" depart="122.00">