<?xml version="1.0" encoding="UTF-8"?>

<!-- generated on 2024-05-28 13:21:13 by Eclipse SUMO netconvert Version 1.18.0
<configuration xmlns:xsi="http://www.w3.org/2001/XMLSchema-instance" xsi:noNamespaceSchemaLocation="http://sumo.dlr.de/xsd/netconvertConfiguration.xsd">

    <input>
        <osm-files value="okadai2iterate.osm"/>
    </input>

    <output>
        <output-file value="okadai2iterate.net.xml"/>
    </output>

    <projection>
        <proj.utm value="true"/>
    </projection>

    <processing>
        <geometry.remove value="true"/>
        <roundabouts.guess value="true"/>
    </processing>

    <tls_building>
        <tls.discard-simple value="true"/>
        <tls.join value="true"/>
        <tls.guess-signals value="true"/>
    </tls_building>

    <junctions>
        <no-internal-links value="true"/>
        <no-turnarounds value="true"/>
        <junctions.join value="true"/>
    </junctions>

    <report>
        <ignore-errors value="true"/>
    </report>

</configuration>
-->

<net version="1.16" junctionCornerDetail="5" limitTurnSpeed="5.50" xmlns:xsi="http://www.w3.org/2001/XMLSchema-instance" xsi:noNamespaceSchemaLocation="http://sumo.dlr.de/xsd/net_file.xsd">

    <location netOffset="-400240.15,-3838352.32" convBoundary="0.00,0.00,1910.95,957.43" origBoundary="133.910957,34.682398,133.931783,34.690967" projParameter="+proj=utm +zone=53 +ellps=WGS84 +datum=WGS84 +units=m +no_defs"/>

    <type id="highway.footway" priority="1" numLanes="1" speed="2.78" allow="pedestrian" oneway="1" width="2.00"/>
    <type id="highway.path" priority="1" numLanes="1" speed="5.56" allow="pedestrian bicycle" oneway="0" width="2.00"/>
    <type id="highway.residential" priority="3" numLanes="1" speed="13.89" disallow="tram rail_urban rail rail_electric rail_fast ship" oneway="0"/>
    <type id="highway.secondary" priority="11" numLanes="1" speed="27.78" disallow="tram rail_urban rail rail_electric rail_fast ship" oneway="0"/>
    <type id="highway.service" priority="1" numLanes="1" speed="5.56" allow="pedestrian delivery bicycle" oneway="0"/>
    <type id="highway.steps" priority="1" numLanes="1" speed="1.39" allow="pedestrian" oneway="1" width="2.00"/>
    <type id="highway.tertiary" priority="10" numLanes="1" speed="22.22" disallow="tram rail_urban rail rail_electric rail_fast ship" oneway="0"/>
    <type id="highway.unclassified" priority="4" numLanes="1" speed="13.89" disallow="tram rail_urban rail rail_electric rail_fast ship" oneway="0"/>
    <type id="railway.rail" priority="20" numLanes="1" speed="44.44" allow="rail" oneway="1"/>

    <edge id="-1090660553#0" from="9989829549" to="5323510686" priority="3" type="highway.residential" shape="151.67,182.72 48.32,185.72 48.09,208.62">
        <lane id="-1090660553#0_0" index="0" disallow="tram rail_urban rail rail_electric rail_fast ship" speed="13.89" length="126.30" shape="145.02,184.51 49.90,187.28 49.76,201.31"/>
    </edge>
    <edge id="-1090660553#1" from="9989829550" to="9989829549" priority="3" type="highway.residential">
        <lane id="-1090660553#1_0" index="0" disallow="tram rail_urban rail rail_electric rail_fast ship" speed="13.89" length="23.96" shape="153.98,166.17 153.56,176.09"/>
    </edge>
    <edge id="-1090660554" from="9989829552" to="9989829551" priority="4" type="highway.unclassified">
        <lane id="-1090660554_0" index="0" disallow="tram rail_urban rail rail_electric rail_fast ship" speed="13.89" length="40.04" shape="101.43,656.10 101.55,681.67"/>
    </edge>
    <edge id="-1090660555" from="9989829554" to="9989829553" priority="4" type="highway.unclassified">
        <lane id="-1090660555_0" index="0" disallow="tram rail_urban rail rail_electric rail_fast ship" speed="13.89" length="16.75" shape="99.92,720.69 99.89,730.13"/>
    </edge>
    <edge id="-1090660556#0" from="9989829559" to="9989829555" priority="4" type="highway.unclassified">
        <lane id="-1090660556#0_0" index="0" disallow="tram rail_urban rail rail_electric rail_fast ship" speed="13.89" length="17.60" shape="56.23,744.91 45.88,745.15"/>
    </edge>
    <edge id="-1090660556#1" from="9989829557" to="9989829559" priority="4" type="highway.unclassified" shape="64.89,712.26 64.97,743.10 63.44,743.14">
        <lane id="-1090660556#1_0" index="0" disallow="tram rail_urban rail rail_electric rail_fast ship" speed="13.89" length="31.04" shape="66.51,719.57 66.55,735.96"/>
    </edge>
    <edge id="-1090660557" from="9989829559" to="9989829558" priority="4" type="highway.unclassified">
        <lane id="-1090660557_0" index="0" disallow="tram rail_urban rail rail_electric rail_fast ship" speed="13.89" length="37.05" shape="65.09,750.38 65.25,772.88"/>
    </edge>
    <edge id="-1090660568" from="9989829615" to="9989829614" priority="4" type="highway.unclassified">
        <lane id="-1090660568_0" index="0" disallow="tram rail_urban rail rail_electric rail_fast ship" speed="13.89" length="25.31" shape="311.48,126.44 311.20,144.43"/>
    </edge>
    <edge id="-1090660569" from="9989847819" to="cluster_4415103121_9989829616" priority="4" type="highway.unclassified" shape="342.26,118.45 338.97,121.92 337.66,124.37 338.44,178.11">
        <lane id="-1090660569_0" index="0" disallow="tram rail_urban rail rail_electric rail_fast ship" speed="13.89" length="62.58" shape="339.33,129.26 339.94,170.97"/>
    </edge>
    <edge id="-1090660570" from="9989847821" to="9989847820" priority="4" type="highway.unclassified">
        <lane id="-1090660570_0" index="0" disallow="tram rail_urban rail rail_electric rail_fast ship" speed="13.89" length="30.96" shape="372.67,125.09 372.93,148.82"/>
    </edge>
    <edge id="-1090660571" from="9989847824" to="9989847822" priority="4" type="highway.unclassified" shape="410.40,117.09 410.68,142.87 406.94,146.90">
        <lane id="-1090660571_0" index="0" disallow="tram rail_urban rail rail_electric rail_fast ship" speed="13.89" length="31.29" shape="412.08,124.30 412.29,143.49 408.11,147.99"/>
    </edge>
    <edge id="-1090660572" from="9989847826" to="9989847825" priority="4" type="highway.unclassified">
        <lane id="-1090660572_0" index="0" disallow="tram rail_urban rail rail_electric rail_fast ship" speed="13.89" length="55.05" shape="459.12,68.34 460.71,108.84"/>
    </edge>
    <edge id="-1090660573" from="9989847828" to="9989847827" priority="4" type="highway.unclassified">
        <lane id="-1090660573_0" index="0" disallow="tram rail_urban rail rail_electric rail_fast ship" speed="13.89" length="11.66" shape="429.84,69.18 429.80,73.53"/>
    </edge>
    <edge id="-1090660574" from="9989847830" to="9989847829" priority="4" type="highway.unclassified">
        <lane id="-1090660574_0" index="0" disallow="tram rail_urban rail rail_electric rail_fast ship" speed="13.89" length="24.68" shape="390.94,69.79 390.97,87.23"/>
    </edge>
    <edge id="-1090660575" from="9989847832" to="9989847831" priority="4" type="highway.unclassified">
        <lane id="-1090660575_0" index="0" disallow="tram rail_urban rail rail_electric rail_fast ship" speed="13.89" length="23.51" shape="375.58,70.02 375.60,86.29"/>
    </edge>
    <edge id="-1090660576" from="9989847834" to="9989847833" priority="4" type="highway.unclassified">
        <lane id="-1090660576_0" index="0" disallow="tram rail_urban rail rail_electric rail_fast ship" speed="13.89" length="36.29" shape="300.06,81.96 328.95,81.63"/>
    </edge>
    <edge id="-1090660578#0" from="9989847837" to="1923302162" priority="4" type="highway.unclassified">
        <lane id="-1090660578#0_0" index="0" disallow="tram rail_urban rail rail_electric rail_fast ship" speed="13.89" length="93.63" shape="287.36,261.05 288.23,181.78"/>
    </edge>
    <edge id="-1090660578#1" from="9989847838" to="9989847837" priority="4" type="highway.unclassified">
        <lane id="-1090660578#1_0" index="0" disallow="tram rail_urban rail rail_electric rail_fast ship" speed="13.89" length="37.43" shape="318.93,270.81 295.85,269.97"/>
    </edge>
    <edge id="-1090660579#0" from="cluster_9989847854_9989847856" to="9989847837" priority="4" type="highway.unclassified" shape="258.37,268.44 288.88,268.11">
        <lane id="-1090660579#0_0" index="0" disallow="tram rail_urban rail rail_electric rail_fast ship" speed="13.89" length="31.62" shape="263.29,266.79 281.82,266.59"/>
    </edge>
    <edge id="-1090660579#2" from="9989847840" to="cluster_9989847854_9989847856" priority="4" type="highway.unclassified" shape="149.26,269.62 256.15,268.47">
        <lane id="-1090660579#2_0" index="0" disallow="tram rail_urban rail rail_electric rail_fast ship" speed="13.89" length="108.01" shape="153.98,267.97 248.89,266.95"/>
    </edge>
    <edge id="-1090660579#3" from="cluster_5323510683_9989847849" to="9989847840" priority="4" type="highway.unclassified" shape="47.62,269.12 147.25,269.64 149.26,269.62">
        <lane id="-1090660579#3_0" index="0" disallow="tram rail_urban rail rail_electric rail_fast ship" speed="13.89" length="107.78" shape="51.66,267.54 144.58,268.03"/>
    </edge>
    <edge id="-1090660580#0" from="9989847852" to="9989847840" priority="1" type="highway.service" shape="151.52,235.04 149.27,250.56 149.26,269.62">
        <lane id="-1090660580#0_0" index="0" allow="pedestrian delivery bicycle" speed="5.56" length="34.75" shape="152.50,239.42 150.87,250.67 150.86,264.89"/>
    </edge>
    <edge id="-1090660580#1" from="9989829549" to="9989847852" priority="1" type="highway.service" shape="151.67,182.72 152.14,186.23 153.66,223.24 152.39,229.02 151.52,235.04">
        <lane id="-1090660580#1_0" index="0" allow="pedestrian delivery bicycle" speed="5.56" length="52.58" shape="153.77,186.86 155.27,223.38 153.96,229.30 153.86,230.03"/>
    </edge>
    <edge id="-1090660581" from="cluster_5323510683_9989847849" to="9989847845" priority="4" type="highway.unclassified" shape="47.50,250.55 54.24,256.02 93.88,255.59 100.04,248.87 130.32,248.32">
        <lane id="-1090660581_0" index="0" disallow="tram rail_urban rail rail_electric rail_fast ship" speed="13.89" length="89.40" shape="52.79,252.78 54.80,254.41 93.17,254.00 99.32,247.28 130.29,246.72"/>
    </edge>
    <edge id="-1090660582" from="9989847851" to="9989847850" priority="4" type="highway.unclassified">
        <lane id="-1090660582_0" index="0" disallow="tram rail_urban rail rail_electric rail_fast ship" speed="13.89" length="88.97" shape="54.56,225.78 136.30,224.48"/>
    </edge>
    <edge id="-1090660583" from="cluster_9989847854_9989847856" to="9989847852" priority="4" type="highway.unclassified" shape="256.15,268.47 255.31,232.34 151.52,235.04">
        <lane id="-1090660583_0" index="0" disallow="tram rail_urban rail rail_electric rail_fast ship" speed="13.89" length="140.06" shape="254.38,261.27 253.75,233.98 156.85,236.50"/>
    </edge>
    <edge id="-1090660584" from="cluster_9989847854_9989847856" to="9993048234" priority="1" type="highway.service" shape="258.37,268.44 259.38,296.40">
        <lane id="-1090660584_0" index="0" allow="pedestrian delivery bicycle" speed="5.56" length="28.13" shape="260.14,273.16 260.80,291.49"/>
    </edge>
    <edge id="-1090660595" from="cluster_1916791749_9989847896" to="9989847895" priority="4" type="highway.unclassified" shape="85.43,835.38 83.93,819.13">
        <lane id="-1090660595_0" index="0" disallow="tram rail_urban rail rail_electric rail_fast ship" speed="13.89" length="16.31" shape="83.14,827.94 82.34,819.28"/>
    </edge>
    <edge id="-1090660596" from="cluster_9989847900_9989847907" to="9989847897" priority="4" type="highway.unclassified" shape="132.29,862.71 139.07,852.23 140.53,842.91 141.07,831.37">
        <lane id="-1090660596_0" index="0" disallow="tram rail_urban rail rail_electric rail_fast ship" speed="13.89" length="35.74" shape="134.88,855.76 137.54,851.65 138.94,842.75 139.48,831.30"/>
    </edge>
    <edge id="-1090660597" from="cluster_1923302512_9989847902" to="cluster_3074207019_9989847901" priority="4" type="highway.unclassified" shape="170.52,876.26 172.72,812.09">
        <lane id="-1090660597_0" index="0" disallow="tram rail_urban rail rail_electric rail_fast ship" speed="13.89" length="64.36" shape="169.18,868.60 170.87,819.36"/>
    </edge>
    <edge id="-1090660598" from="9989847904" to="9989847903" priority="4" type="highway.unclassified">
        <lane id="-1090660598_0" index="0" disallow="tram rail_urban rail rail_electric rail_fast ship" speed="13.89" length="36.82" shape="160.34,819.09 158.89,848.57"/>
    </edge>
    <edge id="-1090660599" from="cluster_9989847900_9989847907" to="9989847905" priority="4" type="highway.unclassified" shape="121.85,855.71 122.18,875.92 125.77,878.10">
        <lane id="-1090660599_0" index="0" disallow="tram rail_urban rail rail_electric rail_fast ship" speed="13.89" length="22.61" shape="123.62,865.80 123.76,875.01 126.60,876.73"/>
    </edge>
    <edge id="-1090660600" from="1923302592" to="9989847908" priority="4" type="highway.unclassified" shape="170.82,906.65 154.60,909.04 144.15,909.82">
        <lane id="-1090660600_0" index="0" disallow="tram rail_urban rail rail_electric rail_fast ship" speed="13.89" length="26.87" shape="163.92,909.28 154.78,910.63 144.27,911.41"/>
    </edge>
    <edge id="-1090660601#1" from="9989847910" to="1923302410" priority="4" type="highway.unclassified" shape="147.41,715.02 147.39,711.32 147.30,688.57">
        <lane id="-1090660601#1_0" index="0" disallow="tram rail_urban rail rail_electric rail_fast ship" speed="13.89" length="26.45" shape="145.78,707.72 145.73,695.92"/>
    </edge>
    <edge id="-1090660602" from="9989847913" to="9989847912" priority="4" type="highway.unclassified">
        <lane id="-1090660602_0" index="0" disallow="tram rail_urban rail rail_electric rail_fast ship" speed="13.89" length="18.91" shape="245.14,646.14 233.45,645.99"/>
    </edge>
    <edge id="-1090660603" from="9989847915" to="9989847914" priority="4" type="highway.unclassified">
        <lane id="-1090660603_0" index="0" disallow="tram rail_urban rail rail_electric rail_fast ship" speed="13.89" length="28.88" shape="233.41,849.41 232.97,828.18"/>
    </edge>
    <edge id="-1090660604" from="9989847917" to="cluster_1923302476_1923302484" priority="4" type="highway.unclassified" shape="282.33,897.78 285.22,817.85 283.14,811.50">
        <lane id="-1090660604_0" index="0" disallow="tram rail_urban rail rail_electric rail_fast ship" speed="13.89" length="88.00" shape="281.02,889.90 283.53,820.51"/>
    </edge>
    <edge id="-1090660605#0" from="9989847921" to="1923302592" priority="4" type="highway.unclassified" shape="248.19,935.51 223.11,942.44 212.94,948.08 208.06,950.80 194.07,952.73 195.17,949.72 174.94,935.20 170.82,906.65">
        <lane id="-1090660605#0_0" index="0" disallow="tram rail_urban rail rail_electric rail_fast ship" speed="13.89" length="114.32" shape="242.59,938.72 223.72,943.93 213.72,949.48 208.57,952.34 191.65,954.68 193.25,950.31 173.45,936.10 170.26,914.01"/>
    </edge>
    <edge id="-1090660605#1" from="9989847934" to="9989847921" priority="4" type="highway.unclassified" shape="305.06,901.18 304.76,914.95 305.01,937.78 304.97,954.41 271.59,957.43 267.98,953.70 262.86,953.53 260.00,935.83 248.19,935.51">
        <lane id="-1090660605#1_0" index="0" disallow="tram rail_urban rail rail_electric rail_fast ship" speed="13.89" length="126.81" shape="306.50,908.53 306.36,914.96 306.61,937.78 306.56,955.87 270.97,959.09 267.28,955.28 261.49,955.09 258.64,937.39 254.74,937.29"/>
    </edge>
    <edge id="-1090660606" from="9989847921" to="cluster_1923302526_9989847935" priority="4" type="highway.unclassified" shape="248.19,935.51 246.84,913.36 250.61,890.92">
        <lane id="-1090660606_0" index="0" disallow="tram rail_urban rail rail_electric rail_fast ship" speed="13.89" length="45.29" shape="246.19,929.03 245.24,913.27 247.81,897.91"/>
    </edge>
    <edge id="-1090660616" from="cluster_1923302476_1923302484" to="9989848021" priority="4" type="highway.unclassified" shape="295.53,809.96 296.28,732.08">
        <lane id="-1090660616_0" index="0" disallow="tram rail_urban rail rail_electric rail_fast ship" speed="13.89" length="80.65" shape="294.01,801.87 294.68,732.07"/>
    </edge>
    <edge id="-1090660617" from="9989848023" to="9989848022" priority="4" type="highway.unclassified">
        <lane id="-1090660617_0" index="0" disallow="tram rail_urban rail rail_electric rail_fast ship" speed="13.89" length="71.10" shape="317.34,797.13 314.52,733.72"/>
    </edge>
    <edge id="-1090660618" from="cluster_5322145141_9989848026" to="9989848024" priority="4" type="highway.unclassified" shape="320.81,901.00 321.98,925.99 321.75,946.39">
        <lane id="-1090660618_0" index="0" disallow="tram rail_urban rail rail_electric rail_fast ship" speed="13.89" length="47.34" shape="322.75,908.22 323.58,925.96 323.35,946.41"/>
    </edge>
    <edge id="-1090660619#0" from="9989848035" to="9989848027" priority="4" type="highway.unclassified" shape="366.07,928.69 367.49,933.71 367.41,946.78">
        <lane id="-1090660619#0_0" index="0" disallow="tram rail_urban rail rail_electric rail_fast ship" speed="13.89" length="18.23" shape="369.07,935.67 369.01,946.79"/>
    </edge>
    <edge id="-1090660619#1" from="cluster_5322145139_9989848033" to="9989848035" priority="4" type="highway.unclassified" shape="364.23,900.56 362.94,904.50 363.03,913.13 363.12,920.90 365.17,925.52 366.07,928.69">
        <lane id="-1090660619#1_0" index="0" disallow="tram rail_urban rail rail_electric rail_fast ship" speed="13.89" length="28.66" shape="364.59,909.33 364.63,913.12 364.71,920.55 365.29,921.85"/>
    </edge>
    <edge id="-1090660620" from="9989848035" to="9989848034" priority="4" type="highway.unclassified">
        <lane id="-1090660620_0" index="0" disallow="tram rail_urban rail rail_electric rail_fast ship" speed="13.89" length="7.82" shape="359.85,933.05 359.67,933.13"/>
    </edge>
    <edge id="-1090660624" from="9989848040" to="9989848039" priority="4" type="highway.unclassified">
        <lane id="-1090660624_0" index="0" disallow="tram rail_urban rail rail_electric rail_fast ship" speed="13.89" length="11.75" shape="434.59,860.44 439.07,860.40"/>
    </edge>
    <edge id="-1090660625" from="9989848042" to="9989848041" priority="4" type="highway.unclassified">
        <lane id="-1090660625_0" index="0" disallow="tram rail_urban rail rail_electric rail_fast ship" speed="13.89" length="52.49" shape="385.24,795.85 384.63,751.31"/>
    </edge>
    <edge id="-1090660627" from="9989848044" to="5322145135" priority="4" type="highway.unclassified">
        <lane id="-1090660627_0" index="0" disallow="tram rail_urban rail rail_electric rail_fast ship" speed="13.89" length="11.57" shape="483.65,736.98 479.10,737.12"/>
    </edge>
    <edge id="-1090660628#0" from="9989848050" to="9989848049" priority="4" type="highway.unclassified">
        <lane id="-1090660628#0_0" index="0" disallow="tram rail_urban rail rail_electric rail_fast ship" speed="13.89" length="19.24" shape="484.06,943.13 482.44,955.74"/>
    </edge>
    <edge id="-1090660628#1" from="cluster_5397676348_9989848053" to="9989848050" priority="4" type="highway.unclassified" shape="478.98,905.06 477.92,911.23 480.58,930.71 483.31,936.45">
        <lane id="-1090660628#1_0" index="0" disallow="tram rail_urban rail rail_electric rail_fast ship" speed="13.89" length="34.06" shape="479.77,912.98 482.13,930.25 482.36,930.72"/>
    </edge>
    <edge id="-1090660629" from="1923302550" to="9989848050" priority="4" type="highway.unclassified" shape="518.75,908.58 514.94,937.44 483.31,936.45">
        <lane id="-1090660629_0" index="0" disallow="tram rail_urban rail rail_electric rail_fast ship" speed="13.89" length="60.75" shape="519.29,916.68 516.34,939.08 489.79,938.25"/>
    </edge>
    <edge id="-1090660631" from="9989848058" to="9989848057" priority="4" type="highway.unclassified">
        <lane id="-1090660631_0" index="0" disallow="tram rail_urban rail rail_electric rail_fast ship" speed="13.89" length="29.41" shape="562.97,869.88 540.92,869.82"/>
    </edge>
    <edge id="-1090660632" from="9989848060" to="9989848059" priority="4" type="highway.unclassified">
        <lane id="-1090660632_0" index="0" disallow="tram rail_urban rail rail_electric rail_fast ship" speed="13.89" length="25.93" shape="515.00,819.80 515.04,838.35"/>
    </edge>
    <edge id="-1090660633#1" from="9989848062" to="9989848061" priority="4" type="highway.unclassified" shape="538.12,715.78 537.85,720.19 535.89,751.88">
        <lane id="-1090660633#1_0" index="0" disallow="tram rail_urban rail rail_electric rail_fast ship" speed="13.89" length="36.17" shape="539.26,723.17 537.48,751.98"/>
    </edge>
    <edge id="-1090660634" from="cluster_7116877041_9989848065" to="cluster_4615785246_9989848064" priority="4" type="highway.unclassified" shape="543.06,438.99 443.05,436.59">
        <lane id="-1090660634_0" index="0" disallow="tram rail_urban rail rail_electric rail_fast ship" speed="13.89" length="100.49" shape="538.30,440.48 447.75,438.30"/>
    </edge>
    <edge id="-1090660635#0" from="3149267608" to="1923302136" priority="4" type="highway.unclassified">
        <lane id="-1090660635#0_0" index="0" disallow="tram rail_urban rail rail_electric rail_fast ship" speed="13.89" length="41.37" shape="730.68,177.73 703.70,178.59"/>
    </edge>
    <edge id="-1090660635#1" from="cluster_1923302161_4798662891_4846716835_9989848067" to="3149267608" priority="4" type="highway.unclassified" shape="804.76,175.34 801.49,176.78 737.69,175.91">
        <lane id="-1090660635#1_0" index="0" disallow="tram rail_urban rail rail_electric rail_fast ship" speed="13.89" length="73.59" shape="802.08,178.26 801.82,178.38 744.71,177.60"/>
    </edge>
    <edge id="-1090660636#0" from="cluster_9989848069_9989848070_9989848122_9989848124" to="9989848068" priority="4" type="highway.unclassified" shape="805.62,120.42 785.27,120.66">
        <lane id="-1090660636#0_0" index="0" disallow="tram rail_urban rail rail_electric rail_fast ship" speed="13.89" length="28.11" shape="800.55,122.08 785.29,122.26"/>
    </edge>
    <edge id="-1090660637#0" from="9989848127" to="cluster_1923302106_4798662894_7116877453_7116877454_#1more" priority="4" type="highway.unclassified" shape="856.35,61.75 832.51,58.99 812.90,56.37">
        <lane id="-1090660637#0_0" index="0" disallow="tram rail_urban rail rail_electric rail_fast ship" speed="13.89" length="53.04" shape="849.16,62.53 832.32,60.58 820.08,58.95"/>
    </edge>
    <edge id="-1090660637#1" from="9989848081" to="9989848127" priority="4" type="highway.unclassified" shape="961.17,168.51 958.57,153.54 955.32,147.90 948.59,130.94 942.34,126.49 925.32,105.29 907.96,82.58 879.75,65.50 862.93,62.51 856.35,61.75">
        <lane id="-1090660637#1_0" index="0" disallow="tram rail_urban rail rail_electric rail_fast ship" speed="13.89" length="160.07" shape="958.36,161.68 957.04,154.10 953.87,148.60 947.27,131.96 941.23,127.66 924.06,106.27 906.87,83.79 879.17,67.03 863.47,64.23"/>
    </edge>
    <edge id="-1090660638" from="4271057396" to="9989848082" priority="4" type="highway.unclassified">
        <lane id="-1090660638_0" index="0" disallow="tram rail_urban rail rail_electric rail_fast ship" speed="13.89" length="38.59" shape="941.72,248.41 941.45,273.27"/>
    </edge>
    <edge id="-1090660639" from="cluster_9989848084_9989848086" to="9989848083" priority="4" type="highway.unclassified" shape="976.44,242.21 975.98,258.79">
        <lane id="-1090660639_0" index="0" disallow="tram rail_urban rail rail_electric rail_fast ship" speed="13.89" length="19.00" shape="977.84,249.46 977.57,258.83"/>
    </edge>
    <edge id="-1090660640" from="cluster_9989848084_9989848086" to="9989848085" priority="4" type="highway.unclassified" shape="989.23,242.60 989.82,220.04">
        <lane id="-1090660640_0" index="0" disallow="tram rail_urban rail rail_electric rail_fast ship" speed="13.89" length="24.97" shape="987.82,235.34 988.23,220.00"/>
    </edge>
    <edge id="-1090660641" from="9989848081" to="9989848087" priority="4" type="highway.unclassified">
        <lane id="-1090660641_0" index="0" disallow="tram rail_urban rail rail_electric rail_fast ship" speed="13.89" length="42.33" shape="962.69,179.35 962.46,210.85"/>
    </edge>
    <edge id="-1090660642" from="9989848081" to="1923302211" priority="4" type="highway.unclassified" shape="961.17,168.51 965.14,172.19 973.07,176.11 975.63,179.60 976.69,184.60 980.83,194.57 984.74,199.71 988.66,205.02 993.60,211.15 1000.36,216.09 1006.62,220.87 1017.07,225.43 1023.83,228.87 1030.45,236.82 1040.32,244.12">
        <lane id="-1090660642_0" index="0" disallow="tram rail_urban rail rail_electric rail_fast ship" speed="13.89" length="113.12" shape="971.29,173.45 974.13,174.85 977.12,178.93 978.23,184.13 982.23,193.77 986.02,198.75 989.92,204.04 994.71,209.98 1001.31,214.81 1007.43,219.48 1017.76,223.98 1024.85,227.60 1030.20,234.01"/>
    </edge>
    <edge id="-1090660643#1" from="cluster_4271057394_9989848115" to="cluster_9989848101_9989848113" priority="4" type="highway.unclassified" shape="920.36,284.68 918.37,285.06 906.23,283.13 896.75,280.29 886.67,277.46 877.22,277.56 864.49,275.04 847.02,272.29 830.49,273.06 816.21,274.19">
        <lane id="-1090660643#1_0" index="0" disallow="tram rail_urban rail rail_electric rail_fast ship" speed="13.89" length="111.58" shape="912.40,285.73 905.88,284.69 896.30,281.82 886.46,279.06 877.07,279.16 864.21,276.62 846.93,273.90 830.59,274.65 821.65,275.36"/>
    </edge>
    <edge id="-1090660643#3" from="9989848082" to="cluster_4271057394_9989848115" priority="4" type="highway.unclassified" shape="939.78,279.73 925.30,283.75">
        <lane id="-1090660643#3_0" index="0" disallow="tram rail_urban rail rail_electric rail_fast ship" speed="13.89" length="17.54" shape="934.43,282.88 933.74,283.07"/>
    </edge>
    <edge id="-1090660643#4" from="3074476860" to="9989848082" priority="4" type="highway.unclassified" shape="1028.12,282.74 995.45,280.99 975.36,280.62 954.39,281.43 939.78,279.73">
        <lane id="-1090660643#4_0" index="0" disallow="tram rail_urban rail rail_electric rail_fast ship" speed="13.89" length="88.51" shape="1020.69,283.95 995.39,282.59 975.37,282.22 954.32,283.04 946.03,282.07"/>
    </edge>
    <edge id="-1090660644" from="cluster_4271057394_9989848115" to="9989848114" priority="4" type="highway.unclassified" shape="920.36,284.68 916.66,310.81">
        <lane id="-1090660644_0" index="0" disallow="tram rail_urban rail rail_electric rail_fast ship" speed="13.89" length="27.52" shape="920.84,292.66 919.32,303.47"/>
    </edge>
    <edge id="-1090660645" from="9989848117" to="9989848116" priority="4" type="highway.unclassified">
        <lane id="-1090660645_0" index="0" disallow="tram rail_urban rail rail_electric rail_fast ship" speed="13.89" length="16.81" shape="885.86,245.03 885.83,235.47"/>
    </edge>
    <edge id="-1090660646" from="9989848119" to="9989848118" priority="4" type="highway.unclassified">
        <lane id="-1090660646_0" index="0" disallow="tram rail_urban rail rail_electric rail_fast ship" speed="13.89" length="50.88" shape="871.23,162.21 870.13,118.72"/>
    </edge>
    <edge id="-1090660647" from="cluster_1923302163_9989848121" to="9989848120" priority="4" type="highway.unclassified" shape="926.04,167.83 926.65,144.15">
        <lane id="-1090660647_0" index="0" disallow="tram rail_urban rail rail_electric rail_fast ship" speed="13.89" length="23.81" shape="924.63,160.37 925.05,144.11"/>
    </edge>
    <edge id="-1090660648#1" from="9989848125" to="cluster_9989848069_9989848070_9989848122_9989848124" priority="4" type="highway.unclassified" shape="851.11,109.07 818.87,108.88">
        <lane id="-1090660648#1_0" index="0" disallow="tram rail_urban rail rail_electric rail_fast ship" speed="13.89" length="40.45" shape="843.90,110.62 823.83,110.51"/>
    </edge>
    <edge id="-1090660648#2" from="9989848123" to="9989848125" priority="4" type="highway.unclassified">
        <lane id="-1090660648#2_0" index="0" disallow="tram rail_urban rail rail_electric rail_fast ship" speed="13.89" length="8.47" shape="859.57,110.71 858.31,110.70"/>
    </edge>
    <edge id="-1090660649" from="9989848126" to="9989848125" priority="4" type="highway.unclassified">
        <lane id="-1090660649_0" index="0" disallow="tram rail_urban rail rail_electric rail_fast ship" speed="13.89" length="43.54" shape="853.01,65.54 852.76,101.87"/>
    </edge>
    <edge id="-1090660650" from="9989848128" to="9989848127" priority="4" type="highway.unclassified">
        <lane id="-1090660650_0" index="0" disallow="tram rail_urban rail rail_electric rail_fast ship" speed="13.89" length="51.11" shape="864.39,22.37 859.12,54.75"/>
    </edge>
    <edge id="-1090660653" from="cluster_4271069684_9989848143" to="2459824123" priority="4" type="highway.unclassified" shape="1144.26,97.31 1138.51,98.42 1135.82,97.95 1130.92,95.32 1104.87,76.56 1104.12,68.55 1084.57,60.74 1084.30,62.78 1036.26,38.56">
        <lane id="-1090660653_0" index="0" disallow="tram rail_urban rail rail_electric rail_fast ship" speed="13.89" length="132.45" shape="1136.31,99.66 1135.29,99.49 1130.07,96.68 1103.35,77.43 1102.62,69.67 1085.89,62.99 1085.60,65.23 1046.12,45.32"/>
    </edge>
    <edge id="-1090660654" from="1923302181" to="1923302168" priority="4" type="highway.unclassified">
        <lane id="-1090660654_0" index="0" disallow="tram rail_urban rail rail_electric rail_fast ship" speed="13.89" length="40.52" shape="1099.14,177.17 1089.54,178.00"/>
    </edge>