<?xml version="1.0" encoding="UTF-8"?>

<!-- generated on 2024-05-28 13:22:40 by Eclipse SUMO duarouter Version 1.18.0
<configuration xmlns:xsi="http://www.w3.org/2001/XMLSchema-instance" xsi:noNamespaceSchemaLocation="http://sumo.dlr.de/xsd/duarouterConfiguration.xsd">

    <input>
        <net-file value="okadai2iterate.net.xml"/>
        <route-files value="okadai2iterate.trips.xml"/>
    </input>

    <output>
        <output-file value="okadai2iterate.rou.xml"/>
    </output>

    <report>
        <ignore-errors value="true"/>
    </report>

</configuration>
-->

<routes xmlns:xsi="http://www.w3.org/2001/XMLSchema-instance" xsi:noNamespaceSchemaLocation="http://sumo.dlr.de/xsd/routes_file.xsd">
    <vehicle id="0" depart="0.00">
        <route edges="181978879#7 181978879#9 181979829#0 181979829#1 -181979928#2 -181979928#1 -181979928#0 181979908#0 181979908#1 181979908#2 181979496#0 181979790#1 -181979165 -181979522#1 -181979522#0 181979223 -181979862#0 -181979876 -181979494 -181979877#1 -1090660578#1 1090660579#0 -1090660583"/>
    </vehicle>
    <vehicle id="1" depart="1.00">
        <route edges="-181980296#0 -134013159#2 -134013159#1 -134013159#0 181979553#0 181979553#1 181979829#0 181979829#1 -181979928#2 -181979928#1 -181979928#0 181979908#0 181979908#1 181979908#2 181979496#0 181979790#1 -181979165 761722231 551012342#0 555331338#1 181979522#1 181979165 -181979790#1"/>
    </vehicle>
    <vehicle id="2" depart="2.00">
        <route edges="181979830#0 181979830#1 181979830#2 -181235435#5 -181235435#4 -181980602#2 -181980602#0 -181979899#0 181979519#0"/>
    </vehicle>
    <vehicle id="3" depart="3.00">
        <route edges="309592081 -309592100#0 -181980334#0 181980131#0 1090660635#0 1090660635#1 -181978899#5 -181978899#4 -181978899#2 -181978899#1 -1090660642 -1090660657#1 -1090660657#0 181980750#1 -1090660661"/>
    </vehicle>
    <vehicle id="4" depart="4.00">
        <route edges="-474750411 181978879#4 181978879#5 181978879#6 181978879#7 181978879#9 181979829#0 181979829#1 -181979928#2 -181979928#1 -181979928#0 181979908#0 181979908#1 181979908#2 181979496#0 181979790#1 -181979165 -181979522#1 -181979522#0 181979223 181979814 -761722224 181979869 -181979810#2 -551045291 551012346#2 551012346#4 -1090660598"/>
    </vehicle>
    <vehicle id="5" depart="5.00">
        <route edges="-181979880#1 -181979880#0 181235435#7 -427941144#3 -427941144#2 -427941144#1 -427941144#0 -181979814 -181979789 181979522#0 181979522#1 181979165 -181979790#1 -181979823#2 -181979823#1 -181979449#1 -181979449#0 181979486 181980319#1 1090660644 1090660643#3 1090660643#4 181980323#1 181980323#2 181980323#3 181978815#0 181978815#1 -551224589#1"/>
    </vehicle>
    <vehicle id="6" depart="6.00">
        <route edges="-1090660635#0 -181980131#0 -181979926#1 181979808#9 181979808#10 181979808#11 -181979486 181979449#0 181979449#1 181979823#1 181979823#2 181979790#1 -181979165 -181979522#1 -761722228 -551012342#0 -181980294#0 181979165 -181979790#1 -181979823#2 -181979823#1 -181979449#1"/>
    </vehicle>
    <vehicle id="7" depart="7.00">
        <route edges="181978893#0 181978893#1 181978893#2 181978893#3 181978893#4 -1090660650 1090660637#1 181978899#1 181978899#2 181978899#4 181978899#5 -181979808#5 -181979808#3 1090660637#0"/>
    </vehicle>
    <vehicle id="8" depart="8.00">
        <route edges="-181979880#3 -181979880#2 -551045292 -181979830#0 181979511 1090660597 181980602#0 181980602#2 181235435#4"/>
    </vehicle>
    <vehicle id="9" depart="9.00">
        <route edges="181980294#3 181980294#4 -181980098#6 -181980098#5 -181980098#4 -181980098#2 -181980098#1 -181980098#0 181980322#0 181980322#1 181980322#2 181980322#4 551012346#0 551012346#1 551012346#2 -181979511 181979830#0 551045292 -181979880#1 -1090660556#1 -1090660557"/>
    </vehicle>
    <vehicle id="10" depart="10.00">
        <route edges="181980169#2 -181980318#1 -181980318#0 134099932#0 134099932#1 134099932#2 134013179 181979864#0 181979864#1 181979864#2 181980657#0 181980657#1 181980657#2 181980657#4 181980657#5 181980657#6 -181978815#3 -181978815#2 -181978815#1 -181978815#0 -181979842#1 -181979842#0 181978899#0 181978899#1 181978899#2 181978899#4 181978899#5 181979808#7 181979808#9"/>
    </vehicle>
    <vehicle id="11" depart="11.00">
        <route edges="-181980750#2 -181980750#1 551224589#1 181978815#2 181978815#3 -181980657#6 -181980657#5 -181980657#4 -181980657#2 -181980657#1 -181980657#0 -181979864#2 -181979864#1 -181979864#0 -1254799138 -134013159#3 -134013159#2 -134013159#1 -134013159#0 181979553#0 181979553#1 -181978879#9 -181978879#7 -181978879#6"/>
    </vehicle>
    <vehicle id="12" depart="12.00">
        <route edges="474756497 181978817#4 181978817#5 181980109#0 181980109#1 -181979864#2 -181979864#1 -181979864#0 -1254799138 -134099932#2 -474750371 -181979368#1 -181979368#0 -181979399#0 181979504#0 474750378 181980169#2 -181980318#1 -181980318#0"/>
    </vehicle>
    <vehicle id="13" depart="13.00">
        <route edges="-181978874#11 551075282 -181980322#0 -181980095 181979535#0 181979535#1 181980444#1 -551012342#3 -551012342#2 -551012342#1 555331338#1 181979522#1 181979165 -181979790#1 -181979496#0 -181979908#2 -181979908#1 -181979908#0 181979928#0 181979928#1 181979928#2 -181979829#1 -181979829#0 -181979553#1 -181979553#0 134013159#0 134013159#1 -181980750#4 -181980750#3 -1090660667"/>
    </vehicle>
    <vehicle id="14" depart="14.00">
        <route edges="181980391#2 181980391#3 -181980334#2 -181980334#1 309592100#0 -309592081 -181980131#1 1090660635#0 1090660635#1 -181978899#5 -181978899#4 -181978899#2 -181978899#1 -181978899#0 181980525#0 181980525#1 181980525#2 181980525#3 181980525#5 181978817#0 181978817#2 181978817#3 181978817#4"/>
    </vehicle>
    <vehicle id="15" depart="15.00">
        <route edges="181980231#1 -181979809 181978798#0 -309592107#1 238527373#1 238527373#2 238527373#3 238527373#4 238527373#5 238527373#6 238527373#7 238527373#8 238527373#9 -427941144#3 -427941144#2 -427941144#1 -427941144#0 -181979814 -181979789 181979522#0 181979522#1 181979165 -181979790#1 -181979496#0 -181979908#2 -181979908#1 -181979908#0 181979928#0 181979928#1 181979928#2 -181979829#1 -181979829#0 -181979553#1 -181979553#0 134013159#0 134013159#1 134013159#2 134013159#3 134013179 181979864#0 181979864#1 181979864#2"/>
    </vehicle>
    <vehicle id="16" depart="16.00">
        <route edges="1090660632 -181980098#5 -181980098#4 -181980098#2 -181980098#1 -181980098#0 181980322#0 181980322#1 181980322#2 181980322#4 551012346#0 551012346#1 551012346#2 1090660597 181980602#0 181980602#2 181235435#4 551045297#1"/>
    </vehicle>
    <vehicle id="17" depart="17.00">
        <route edges="-427919638#2 474756495 -1090660664#2 -1090660664#1 -1090660664#0 -181980361#1 -474756499 -474756500#0 -181978815#2 -551224589#1 -181980750#0 181980313#1 -181980319#2 1090660644"/>
    </vehicle>
    <vehicle id="19" depart="19.00">
        <route edges="181980630#2 181980630#3 181978817#0 181978817#2 181978817#3 181978817#4 181978817#5 181980109#0 181980109#1 -181979864#2 -181979864#1 -181979864#0 -1254799138 -134099932#2 -474750371 -474750372 181979811#2 -134099924#1 134099917#1"/>
    </vehicle>
    <vehicle id="20" depart="20.00">
        <route edges="181979788#0 -454839664#1 134099924#1 -181979811#2 474750372 474750371 134099932#2 -134013159#3 -134013159#2 -134013159#1 -134013159#0 181979553#0 181979553#1 181979829#0 181979829#1 -181979928#2 -181979928#1 -181979928#0 181979908#0 181979908#1 181979908#2 181979496#0 181979790#1 -181979165 -181979522#1 -761722228 551012342#1 551012342#2 551012342#3 -181980444#1 -181979535#1 -181979535#0 181980095 551075281 -1090660619#1 -1090660620"/>
    </vehicle>
    <vehicle id="21" depart="21.00">
        <route edges="-181979906 181979813#0 181979813#1 181979827#0 -309592108#1 -309592098#6 -309592098#5 -309592098#4 -309592098#3 -309592098#2 -1090660569 -181980083#4 -181980083#3"/>
    </vehicle>
    <vehicle id="22" depart="22.00">
        <route edges="-181978798#2 -1090660553#1 -1090660553#0 -551232187#4 -551232187#3 -551232187#1 238527373#4 238527373#5 238527373#6 238527373#7 238527373#8 238527373#9 -427941144#3 -427941144#2 -427941144#1 -427941144#0 -761722224 181979869 -181979810#2 -181979810#0"/>
    </vehicle>
    <vehicle id="23" depart="23.00">
        <route edges="-181978874#9 -551075281 -181980095 181979535#0 181979535#1 181980444#1 -551012342#3 -551012342#2 -551012342#1 555331338#1 181979522#1 181979165 -181979790#1 -181979823#2 -181979823#1 -181979449#1 -181979449#0 181979486 -181979808#11 -181979808#10 -181979808#9 181979926#1 181980131#0 181980131#1 181980131#2 -181979906"/>
    </vehicle>
    <vehicle id="24" depart="24.00">
        <route edges="181978879#4 181978879#5 181978879#6 181978879#7 181978879#9 181979829#0 181979829#1 -181979928#2 -181979928#1 -181979928#0 181979908#0 181979908#1 181979908#2 181979496#0 -181979823#2 -181979823#1 -181979449#1 -181979449#0 181979486 -181979808#11 -181979808#10 -181979808#9 181979926#1 181980334#0 181980334#1 181980334#2 -181980391#3"/>
    </vehicle>
    <vehicle id="25" depart="25.00">
        <route edges="-309592107#1 238527373#1 238527373#2 238527373#3 238527373#4 238527373#5 238527373#6 238527373#7 238527373#8 238527373#9 -427941144#3 -427941144#2 -427941144#1 -427941144#0 -181979814 -181979789 181979522#0 -761722228 -551012342#0 -181980294#0 -181979522#1 -181979522#0"/>
    </vehicle>
    <vehicle id="26" depart="26.00">
        <route edges="-181980198 -181980318#1 -181980318#0 134099932#0 134099932#1 134099932#2 -134013159#3 -134013159#2 -134013159#1 -134013159#0 181979553#0 181979553#1 -181978879#9 -181978879#7 -181978879#6 474750408#0 474750408#1"/>
    </vehicle>
    <vehicle id="28" depart="28.00">
        <route edges="-181979786#1 -181979786#0 -551012346#0 181979819#0 181979819#1 181979819#2 181979109 -181979814 -181979789 181979522#0 181979522#1 181979165 -181979790#1 -181979496#0 -181979908#2 -181979908#1 -181979908#0 181979928#0 181979928#1 181979928#2 -181979829#1 -181979829#0 -181979553#1 -181979553#0 134013159#0 134013159#1 134013159#2 134013159#3 134013179 181979864#0 181979864#1 181979864#2"/>
    </vehicle>
    <vehicle id="29" depart="29.00">
        <route edges="-181979524#0 -181978817#5 427919638#0 427919638#2 1090660662#0 1090660662#1 -181980657#4 -181980657#2 -181980657#1 -181980657#0"/>
    </vehicle>
    <vehicle id="30" depart="30.00">
        <route edges="551232187#3 551232187#4 1090660553#0 1090660553#1 181978798#2 -181980231#1 -181980231#0 181980113#0 181980113#1 181980113#2 181980113#3 181980113#4 -181979827#0 -181979813#1 -181979813#0 181979906 181979217#0 181979217#1 1090660637#0 1090660637#1 181978899#1"/>
    </vehicle>
    <vehicle id="31" depart="31.00">
        <route edges="1090660647 -427941145 -1090660644 -181980319#1 -181979486 181979449#0 181979449#1 181979823#1 181979823#2 181979790#1 -181979165 -181979522#1 -181979522#0 181979223 181979814 -761722224 -181979890#3 -181979890#2 -181979890#1 -181979890#0 181979535#0 181979535#1"/>
    </vehicle>
    <vehicle id="32" depart="32.00">
        <route edges="181980361#1 181980361#2 -181980525#5 -181980525#3 -181980525#2 -181980525#1 -181980525#0 181978899#0 -1090660637#1 -1090660637#0 -181979217#1 -181979217#0 -181979906 181979813#0 181979813#1 181979827#0 -309592108#1 -309592098#6 -309592098#5 -309592098#4 -309592098#3 -309592098#2 -309592098#1 -309592098#0 -181980083#1 -181980083#0 181980113#0 181980113#1 181980113#2 181980113#3"/>
    </vehicle>
    <vehicle id="33" depart="33.00">
        <route edges="-181979907 181979827#0 -309592108#1 -309592098#6 -309592098#5 -309592098#4 -309592098#3 -309592098#2 -1090660569 181979877#0 181979877#1 181979494 181979876 181979862#0 181979814 -761722224 181979869 -181979810#2 -551045291 551012346#2 1090660597 -181980303#1 -1090660600"/>
    </vehicle>
    <vehicle id="34" depart="34.00">
        <route edges="-181980444#0 551012344 -181979535#0 181979890#0 181979890#1 181979890#2 181979890#3 181979869 -181979810#2 -181979810#0 -181979880#4 -181979880#3 -181979880#2 -181979880#1 -181979880#0"/>
    </vehicle>
    <vehicle id="35" depart="35.00">
        <route edges="-181979864#1 -181979864#0 -1254799138 -134013159#3 -134013159#2 -134013159#1 -134013159#0 181979553#0 181979553#1 -181978879#9 -181978879#7 -181978879#6 -181978879#5 -181978879#4 474750411 -181978885#4 -181978885#3 -181978885#2 474750414 474750413#1 474750413#2"/>
    </vehicle>
    <vehicle id="36" depart="36.00">
        <route edges="238124453#1 -181978893#1 -181978893#0 181980525#0 181980525#1 181980525#2 427942732#1 -181980630#0 -181980139#2"/>
    </vehicle>
    <vehicle id="37" depart="37.00">
        <route edges="181978899#0 -1090660637#1 -1090660637#0 -181979217#1 -181979217#0 -181979906 181979813#0 181979813#1 181979827#0 181979827#1 -181980113#3 -181980113#2 -181980113#1 -181980113#0 181980231#0 181980231#1 -181979809 181978798#0 -309592107#1 -238527373#0"/>
    </vehicle>
    <vehicle id="38" depart="38.00">
        <route edges="427919638#0 427919638#2 1090660662#0 1090660662#1 -181980657#4 -181980657#2 -181980657#1 -181980657#0 -181979864#2 -181979864#1 -181979864#0 -1254799138 -134099932#2 -134099932#1 -134099932#0 181980318#0 181980318#1 -181980169#2 -474750380"/>
    </vehicle>
    <vehicle id="39" depart="39.00">
        <route edges="-181980169#1 474750379#1 -181979504#1 474750378 181980169#2 -181980318#1 -181980318#0 134099932#0 134099932#1 134099932#2 -134013159#3 -134013159#2 -134013159#1 -134013159#0 181979553#0 181979553#1 181979829#0 181979829#1 -181979928#2 -181979928#1 -181979928#0 181979908#0 181979908#1 181979908#2 181979496#0 -181979823#2 -181979823#1"/>
    </vehicle>
    <vehicle id="40" depart="40.00">
        <route edges="1090660654 -181980525#1 -181980525#0 181978899#0 181978899#1 -427941146#3 -1090660638 -1090660643#3 -1090660644 -181980319#1 -181979486 181979449#0 181979449#1 181979823#1 181979823#2 181979790#1 -181979165 -181979522#1 -181979522#0 181979223 181979814 -761722224 181979869 -181979445 181979044#0 181979044#1 1090660601#0 181979880#4 181979810#0 181979810#2 -181979869"/>
    </vehicle>
    <vehicle id="42" depart="42.00">
        <route edges="-474750372 181979811#2 -134099924#1 454839664#1 -181979788#0 -181979811#2 474750372 474750371 134099932#2 -134013159#3 -134013159#2 -134013159#1 -134013159#0 181979553#0 181979553#1 181979829#0 181979829#1 -181979928#2 -181979928#1 -181979928#0 181979908#0 181979908#1 181979908#2 181979496#0 181979790#1 -181979165 -181979522#1 -181979522#0 181979223 181979814 -761722224 -181979819#2 -181979819#1 -181979819#0 -181979519#1 -181979786#1"/>
    </vehicle>
    <vehicle id="43" depart="43.00">
        <route edges="761722202 -551012342#0 -181980294#0 -181979522#1 -761722228 -555331338#0"/>
    </vehicle>
    <vehicle id="44" depart="44.00">
        <route edges="-181978874#0 -181980092#1 -181980092#0 -181980098#6 -181980098#5 -181980098#4 -181980098#2 -555331339#1 -1090660624"/>
    </vehicle>
    <vehicle id="45" depart="45.00">
        <route edges="-181978885#1 -474750413#2 -474750413#1 -474750414 181978885#2 181978885#3"/>
    </vehicle>
    <vehicle id="46" depart="46.00">
        <route edges="181980123 -181979382 -181979820 181979399#0 181979399#1 181979368#1 474750371 134099932#2 134013179 181979864#0 181979864#1 181979864#2 181980657#0 181980657#1 181980657#2 181980657#4 181980657#5 181980657#6 -181978815#3 -181978815#2 -181978815#1 -181978815#0 -181979842#1 -181979842#0 181978899#0 -1090660637#1 -1090660637#0 -181979217#1 -181979217#0 -181979906 181979813#0 181979813#1 181979827#0 -309592108#1 -309592098#6 -309592098#5"/>
    </vehicle>
    <vehicle id="47" depart="47.00">
        <route edges="-134099920 -454839664#2 -181979788#0 -181979811#2 474750372 474750371 134099932#2 134013179 181979864#0 181979864#1 181979864#2 -181980109#1 -181980109#0 -181978817#5 427919638#0 427919638#2 1090660662#0 1090660662#1 -181980657#4 -181980657#2"/>
    </vehicle>
    <vehicle id="48" depart="48.00">
        <route edges="559650485 181978874#4 555331339#0 555331339#1 -181980098#1 -181980098#0 -181980095 181979890#0 181979890#1 181979890#2 181979890#3 181979109 -181979814 -181979862#0 -181979876 -181979494 -181979877#1 -1090660578#1 1090660579#0 1090660579#2"/>
    </vehicle>
    <vehicle id="49" depart="49.00">
        <route edges="551012346#0 551012346#1 551012346#2 -181979511 181979830#0 551045292 -181979880#1 -181979880#0 181235435#7 -238527373#9 -238527373#8 -238527373#7 -238527373#6 -238527373#5 -238527373#4 551232187#1 551232187#3 551232187#4 1090660553#0 1090660553#1 -181978798#1 -309592107#1 238527373#1"/>
    </vehicle>
    <vehicle id="50" depart="50.00">
        <route edges="-1090660579#2 -1090660579#0 1090660578#1 181979877#1 181979494 181979876 181979862#0 181979814 -761722224 181979869 -181979810#2 -181979810#0 181979397 181979830#0 181979830#1"/>
    </vehicle>
    <vehicle id="51" depart="51.00">
        <route edges="181979449#0 181979449#1 181979823#1 181979823#2 181979790#1 -181979165 -181979522#1 -181979522#0 181979223 181979814 -761722224 -181979819#2 -181979819#1 -181979819#0 -181979519#1 -181979519#0 1090660606"/>
    </vehicle>
    <vehicle id="52" depart="52.00">
        <route edges="-181980169#2 -474750378 -181979504#0 181979399#0 181979399#1 181979368#1 474750371 134099932#2 134013179 181979864#0 181979864#1 181979864#2 181980657#0 181980657#1 181980657#2 181980657#4 181980657#5 181980657#6 -181978815#3 -181978815#2 -181978815#1 -181978815#0 -181979842#1 -181979842#0 181978899#0 181978899#1 181978899#2"/>
    </vehicle>
    <vehicle id="53" depart="53.00">
        <route edges="-181978885#3 -181978885#2 -181978885#1 -474750413#2 -474750413#1 -474750414 181978885#2 181978885#3 181978885#4 -474750411 181978879#4 181978879#5 181978879#6 181978879#7 181978879#9 -181979553#1 -181979553#0 134013159#0 134013159#1 134013159#2 134013159#3 134013179 181979864#0 181979864#1 181979864#2 181980657#0 181980657#1 181980657#2 181980657#4 -1090660662#1 -1090660662#0 -427919638#2"/>
    </vehicle>
    <vehicle id="54" depart="54.00">
        <route edges="-551045292 -181979830#0 -181979397 181979810#0 181979810#2 -181979869 181979109 -181979814 -181979789 181979522#0 181979522#1 181979165 -181979790#1 -181979823#2 -181979823#1 -181979449#1 -181979449#0 181979486 181980319#1 181980319#2 -181980313#1 -181980313#0 551224589#1 181978815#2 474756500#0 474756500#1"/>
    </vehicle>
    <vehicle id="55" depart="55.00">
        <route edges="238124453#1 -181978893#1 -181978893#0 181978899#0 181978899#1 -427941146#3 -1090660638 -1090660643#3 -1090660644 -181980319#1 -181979486 181979449#0 181979449#1 181979823#1 181979823#2 181979790#1 -181979165 -181979522#1 -181979522#0 181979223 181979814 -761722224 181979869 -181979445 181979044#0 181979044#1 1090660601#0 181979880#4 181979810#0 181979810#2 -181979869"/>
    </vehicle>
    <vehicle id="56" depart="56.00">
        <route edges="1090660578#0 1090660578#1 -181979877#0 -181980083#4 -181980083#3 -181980083#1 -181980083#0 -181979012"/>
    </vehicle>
    <vehicle id="57" depart="57.00">
        <route edges="427919635#1 181980296#1 181980296#2 -181980109#1 -181980109#0 181979524#0 181979524#1 308887755"/>
    </vehicle>
    <vehicle id="58" depart="58.00">
        <route edges="-181980323#3 -181980323#2 -1090660657#1 -1090660656 181980323#3 -181979842#1 -181979842#0 181978899#0"/>
    </vehicle>
    <vehicle id="59" depart="59.00">
        <route edges="181978798#1 -1090660553#1 -1090660553#0 -551232187#4 -551232187#3 -551232187#1 238527373#4 238527373#5 238527373#6 238527373#7 238527373#8 238527373#9 -427941144#3 -427941144#2 -427941144#1 -427941144#0 -181979814 -181979789 181979522#0 181979522#1 181979165 -181979790#1 -181979496#0 -181979908#2 -181979908#1 -181979908#0 181979928#0 181979928#1 181979928#2 -181979829#1 -181979829#0 -181978879#9 -181978879#7 -181978879#6 -181978879#5 -181978879#4 -181978879#2"/>
    </vehicle>
    <vehicle id="60" depart="60.00">
        <route edges="181979906 -181980131#2 -181980131#1 -181980131#0 -181979926#1 181979808#9 181979808#10 181979808#11 -181979486 181979449#0 181979449#1 181979823#1 181979823#2 181979790#1 -181979165 -181979522#1 -761722228 -555331338#0 181980294#3 181980294#4 181980092#0 181980092#1 181978874#0 -1090660629 1090660628#1"/>
    </vehicle>
    <vehicle id="61" depart="61.00">
        <route edges="181980098#0 181980098#1 181980098#2 181980098#4 181980098#5 181980098#6 -181980294#4 -181980294#3 761722202 555331338#1 -181979522#0 181979223 -181979862#0 -181979876 -181979494 -181979877#1 -1090660578#1 1090660579#0 1090660579#2 1090660579#3"/>
    </vehicle>
    <vehicle id="62" depart="62.00">
        <route edges="-1090660553#0 -551232187#4 -551232187#3 -551232187#1 238527373#4 238527373#5 238527373#6 238527373#7 238527373#8 238527373#9 -427941144#3 -427941144#2 -427941144#1 -427941144#0 -761722224 -181979890#3 -181979890#2 -181979890#1 -181979890#0 181980095 181980098#0 181980098#1 181980098#2 181980098#4 181980098#5 181980098#6 -181980294#4"/>
    </vehicle>
    <vehicle id="64" depart="64.00">
        <route edges="238527373#1 238527373#2 238527373#3 551232187#1 -1090660579#3 -1090660579#2 -1090660579#0 1090660578#1 -181979877#0 181980391#1"/>
    </vehicle>
    <vehicle id="65" depart="65.00">
        <route edges="-181980351#4 -181980351#3 -181980351#2 -181980351#1 -181980351#0 -181979877#1 -181979877#0 1090660569 309592098#2 309592098#3 309592098#4 309592098#5 309592098#6 309592108#1 -181979827#0 -181979813#1 -181979813#0 181979906 181979217#0 181979217#1 181979808#3 -1090660636#0"/>
    </vehicle>
    <vehicle id="66" depart="66.00">
        <route edges="238527373#1 309592097#1 -238527373#2 -238527373#1 309592107#1 -181978798#0 181979809 -181980231#1 -181980231#0 181980113#0 181980113#1 181980113#2 181980113#3 181980113#4 -181979827#0 -181979813#1 -181979813#0 181979906 181979217#0 181979217#1 1090660637#0 1090660637#1 -181978899#0 181980525#0 181980525#1 181980525#2 181980525#3 474756493"/>
    </vehicle>
    <vehicle id="67" depart="67.00">
        <route edges="-181978817#0 -181980525#5 -181980525#3 -181980525#2 -1090660654 181979842#1 -181980323#3 -181980323#2 -181980323#1 -1090660643#4 -1090660643#3 -1090660644 -181980319#1 -181979486 181979449#0 181979449#1 181979823#1 181979823#2 181979790#1 -181979165 -181979522#1 -761722228 551012342#1 551012342#2 551012342#3 -181980444#1 -181980444#0 -181980444#2 -551012342#3"/>
    </vehicle>
    <vehicle id="68" depart="68.00">
        <route edges="-181235414 551232187#1 -1090660579#3 -1090660579#2 -1090660579#0 -1090660578#0 181980083#4"/>
    </vehicle>
    <vehicle id="69" depart="69.00">
        <route edges="181979908#2 181979496#0 181979790#1 -181979165 -181979522#1 -181979522#0 181979223 -181979862#0 -181979876 -181979494 -181979877#1 -1090660578#1 -1090660578#0 -181980083#3 -181980083#1 -181980083#0 181980231#0 181980231#1 -181978798#2"/>
    </vehicle>
    <vehicle id="70" depart="70.00">
        <route edges="-559650484 181980098#5 181980098#6 -181980294#4 -181980294#3 761722202 555331338#1 181979522#1 181979165 -181979790#1 -181979823#2 -181979823#1 -181979449#1 -181979449#0 181979486 -181979808#11 1090660643#1"/>
    </vehicle>
    <vehicle id="71" depart="71.00">
        <route edges="-181980169#1 474750379#1 -181979504#1 474750378 181980169#2 -181980318#1 -181980318#0 134099932#0 134099932#1 134099932#2 134013179 181979864#0 181979864#1 181979864#2 181980657#0 181980657#1 181980657#2 181980657#4 181980657#5 181980657#6 -181978815#3 -181978815#2 -181978815#1 -181978815#0 -181979842#1 -181979842#0 181978899#0 -1090660637#1 -1090660637#0 -181979217#1 309592073"/>
    </vehicle>
    <vehicle id="73" depart="73.00">
        <route edges="1090660635#0 1090660635#1 181979808#7 181979808#9 181979808#10 181979808#11 -181979486 181979449#0 181979449#1 181979823#1 181979823#2 181979790#1 -181979165 -181979522#1 -181979522#0 181979223 181979814 -761722224 181979869"/>
    </vehicle>
    <vehicle id="74" depart="74.00">
        <route edges="-181979829#1 -181979829#0 -181978879#9 -474750405 181979829#1 -181979928#2 -181979928#1 -181979928#0 181979908#0 181979908#1 181979908#2 181979496#0 181979790#1 -181979165 -181979522#1 -761722228 -555331338#0 181980294#3 181980294#4 181980092#0 181980092#1 181980136 -181980138#0"/>
    </vehicle>
    <vehicle id="75" depart="75.00">
        <route edges="559650484 -181978874#1 -181978874#0 -181980092#1 -181980092#0 -181980294#4 -181980294#3 761722202 555331338#1 181979522#1 181979165"/>
    </vehicle>
    <vehicle id="76" depart="76.00">
        <route edges="-551012341#0 -181980294#3 761722202 555331338#1 181979522#1 181979165 -181979790#1 -181979496#0 -181979908#2 -181979908#1 -181979908#0 181979928#0 181979928#1 181979928#2 -181979829#1 -181979829#0 -181979553#1 -761722243"/>
    </vehicle>
    <vehicle id="77" depart="77.00">
        <route edges="-181978893#3 -181978893#2 -181978893#1 -181978893#0 181978899#0 -1090660637#1 -1090660637#0 -181979808#0"/>
    </vehicle>
    <vehicle id="78" depart="78.00">
        <route edges="-181980750#0 181980313#1 -181980319#2 -181980319#1 -181979486 181979449#0 181979449#1 181979823#1 181979823#2 181979790#1 -181979165 -181979522#1 -181979522#0 181979223 181979814 -761722224 181979869 -181979810#2 -551045291 551012346#2 1090660597 181980602#0 181980602#2 -181235435#3 -181235435#2 -551010044 181235435#3"/>
    </vehicle>
    <vehicle id="79" depart="79.00">
        <route edges="-181979908#0 181979928#0 181979928#1 181979928#2 -181979829#1 -181979829#0 -181979553#1 -181979553#0 134013159#0 134013159#1 134013159#2 134013159#3 -134099932#2 -474750371 -474750372 181979811#2 -134099924#1 454839664#1 -181979788#0"/>
    </vehicle>
    <vehicle id="80" depart="80.00">
        <route edges="-181235435#2 -551010044 181235435#3 -181980602#2 -181980602#0 -1090660597 -551012346#2 551045291 181979810#2 -181979869 181979109 -181979814 -181979789 181979522#0 181979522#1 181979165 -181979790#1 -181979496#0 -181979908#2 -181979908#1 -181979908#0 181979928#0 181979928#1 181979928#2 -181979829#1 -181979829#0 -181978879#9 -181978879#7 -181978879#6 -181978879#5 -181978879#4 -474750410 181978885#6"/>
    </vehicle>
    <vehicle id="81" depart="81.00">
        <route edges="-181979907 -181979813#1 -181979813#0 181979906 181979217#0 181979217#1 1090660637#0 1090660637#1 -1090660642 427941146#0 427941146#2"/>
    </vehicle>
    <vehicle id="82" depart="82.00">
        <route edges="181980630#0 -427942732#1 -181980525#2 -1090660654 181979842#1 -181980323#3 -181980323#2 -181980323#1 -1090660643#4 -1090660643#3 -1090660643#1 -181979808#10 551221607#1 -1090660645"/>
    </vehicle>
    <vehicle id="83" depart="83.00">
        <route edges="-181980083#0 181980231#0 181980231#1 -181979809 181978798#0 -309592107#1 238527373#1 238527373#2 238527373#3 238527373#4 238527373#5 238527373#6 238527373#7 238527373#8 238527373#9 -181235435#7 181979880#0 181979880#1 181979880#2 181979880#3 -1090660601#1 181979485#0 181979485#1"/>
    </vehicle>
    <vehicle id="84" depart="84.00">
        <route edges="-181979876 -181979494 -181979877#1 -181979877#0 181980391#1 181980391#2 181980391#3 -181980334#2 -181980334#1 309592100#0 -309592081 -181980131#1 1090660635#0 1090660635#1 -181978899#5 -181978899#4 -181978899#2 -181978899#1 -181978899#0 181980525#0 181980525#1 181980525#2 181980525#3 181980525#5 -181980361#2 -181980361#1 -181980361#0 -181978815#3"/>
    </vehicle>
    <vehicle id="87" depart="87.00">
        <route edges="181980231#1 -181979809 181978798#0 -309592107#1 238527373#1 238527373#2 238527373#3 238527373#4 238527373#5 238527373#6 238527373#7 238527373#8 238527373#9 -427941144#3 -427941144#2 -427941144#1 -427941144#0 -181979814 -181979789 181979522#0 181979522#1 181979165 -181979790#1 -181979496#0 -181979908#2 -181979908#1 -181979908#0 181979928#0 181979928#1 181979928#2 -181979829#1 -181979829#0 -181979553#1 -181979553#0 134013159#0 134013159#1 134013159#2 134013159#3 -134099932#2 -474750371 -474750372 181979811#2 -134099924#1 134099917#1 -181979382"/>
    </vehicle>
    <vehicle id="88" depart="88.00">
        <route edges="-181978874#4 -181978874#2 -559650484 181980098#5 181980098#6 -181980294#4 -181980294#3 761722202 555331338#1 181979522#1 181979165 -181979790#1 -181979496#0 -181979908#2 -181979908#1 -181979908#0 181979928#0 181979928#1 181979928#2 -181979829#1 -181979829#0 -181979553#1 -181979553#0 134013159#0 134013159#1 134013159#2 181980296#0 -427919635#1"/>
    </vehicle>
    <vehicle id="89" depart="89.00">
        <route edges="-474750413#1 -474750414 181978885#2 181978885#3 181978885#4 -474750411"/>
    </vehicle>
    <vehicle id="90" depart="90.00">
        <route edges="181979820 181979382 -134099917#1 134099924#1 181979788#0 -454839664#1 134099917#1 -181979382 -181979820 181979504#0"/>
    </vehicle>
    <vehicle id="91" depart="91.00">
        <route edges="551075283#0 551075283#1 -181979044#0 181979445 -181979869 181979109 -181979814 -181979789 181979522#0 181979522#1 181979165 -181979790#1 -181979496#0 -181979908#2 -181979908#1 -181979908#0 181979928#0 181979928#1 181979928#2 -181979829#1 -181979829#0 -181979553#1 -181979553#0 134013159#0 134013159#1 134013159#2 134013159#3 134013179 181979864#0 181979864#1 181979864#2 181980657#0 181980657#1 -1090660668"/>
    </vehicle>
    <vehicle id="92" depart="92.00">